../example_data/2v7a/2v7a_protein_pocket.pdb
 OpenBabel04062300053D

  0  0  0     0  0            999 V3000
M  V30 BEGIN CTAB
M  V30 COUNTS 1223 1222 0 0 1
M  V30 BEGIN ATOM
M  V30 1 Mg -44.966 -45.938 -2.789 0
M  V30 2 N -47.446 -50.04 -21.706 0
M  V30 3 C -48.412 -50.721 -20.818 0
M  V30 4 C -48.588 -49.927 -19.552 0
M  V30 5 O -47.65 -49.272 -19.114 0
M  V30 6 C -47.941 -52.123 -20.403 0
M  V30 7 C -47.548 -53.018 -21.536 0
M  V30 8 C -46.378 -53.649 -21.805 0
M  V30 9 N -48.424 -53.395 -22.533 0
M  V30 10 C -47.802 -54.197 -23.384 0
M  V30 11 N -46.562 -54.374 -22.961 0
M  V30 12 H -46.708 -49.496 -21.306 0
M  V30 13 H -49.375 -50.803 -21.343 0
M  V30 14 H -47.07 -52.009 -19.74 0
M  V30 15 H -48.76 -52.609 -19.852 0
M  V30 16 H -49.408 -53.099 -22.604 0
M  V30 17 H -45.463 -53.593 -21.216 0
M  V30 18 H -48.238 -54.636 -24.28 0
M  V30 19 N -49.769 -50.006 -18.939 0
M  V30 20 C -49.954 -49.485 -17.573 0
M  V30 21 C -49.179 -50.376 -16.605 0
M  V30 22 O -49.189 -51.598 -16.738 0
M  V30 23 C -51.428 -49.505 -17.172 0
M  V30 24 C -52.44 -48.859 -18.124 0
M  V30 25 C -53.854 -49.067 -17.565 0
M  V30 26 C -54.968 -48.745 -18.56 0
M  V30 27 N -55.524 -49.977 -19.241 0 CHG=1
M  V30 28 H -50.542 -50.426 -19.414 0
M  V30 29 H -49.574 -48.454 -17.52 0
M  V30 30 H -51.72 -50.559 -17.05 0
M  V30 31 H -51.511 -48.987 -16.205 0
M  V30 32 H -52.231 -47.782 -18.209 0
M  V30 33 H -52.363 -49.327 -19.117 0
M  V30 34 H -53.955 -50.119 -17.261 0
M  V30 35 H -53.977 -48.418 -16.685 0
M  V30 36 H -55.785 -48.243 -18.022 0
M  V30 37 H -54.567 -48.07 -19.33 0
M  V30 38 H -55.895 -50.606 -18.546 0
M  V30 39 H -56.259 -49.707 -19.876 0
M  V30 40 H -54.789 -50.438 -19.754 0
M  V30 41 N -48.528 -49.798 -15.615 0
M  V30 42 C -47.807 -50.644 -14.664 0
M  V30 43 C -48.529 -50.825 -13.342 0
M  V30 44 O -48.313 -51.803 -12.657 0
M  V30 45 C -46.385 -50.135 -14.412 0
M  V30 46 C -45.38 -50.334 -15.542 0
M  V30 47 C -44.114 -49.539 -15.279 0
M  V30 48 C -45.088 -51.833 -15.778 0
M  V30 49 H -48.527 -48.803 -15.516 0
M  V30 50 H -47.724 -51.639 -15.126 0
M  V30 51 H -46.448 -49.056 -14.207 0
M  V30 52 H -45.996 -50.655 -13.524 0
M  V30 53 H -45.832 -49.939 -16.464 0
M  V30 54 H -43.665 -49.868 -14.33 0
M  V30 55 H -43.4 -49.704 -16.099 0
M  V30 56 H -44.36 -48.469 -15.217 0
M  V30 57 H -46.023 -52.353 -16.035 0
M  V30 58 H -44.369 -51.941 -16.604 0
M  V30 59 H -44.664 -52.272 -14.863 0
M  V30 60 N -49.38 -49.869 -12.982 0
M  V30 61 C -50.025 -49.872 -11.671 0
M  V30 62 C -49.071 -49.255 -10.668 0
M  V30 63 O -47.977 -48.817 -11.039 0
M  V30 64 H -49.584 -49.13 -13.624 0
M  V30 65 H -50.259 -50.905 -11.374 0
M  V30 66 H -50.953 -49.283 -11.712 0
M  V30 67 N -49.477 -49.227 -9.397 0
M  V30 68 C -48.609 -48.775 -8.309 0
M  V30 69 C -48.552 -47.271 -8.105 0
M  V30 70 O -47.872 -46.797 -7.193 0
M  V30 71 H -50.407 -49.525 -9.181 0
M  V30 72 H -47.589 -49.128 -8.519 0
M  V30 73 H -48.969 -49.231 -7.375 0
M  V30 74 N -49.271 -46.514 -8.934 0
M  V30 75 C -49.23 -45.051 -8.848 0
M  V30 76 C -50.034 -44.423 -7.723 0
M  V30 77 O -50.986 -45.015 -7.21 0
M  V30 78 H -49.847 -46.951 -9.625 0
M  V30 79 H -49.611 -44.648 -9.798 0
M  V30 80 H -48.18 -44.752 -8.718 0
M  V30 81 N -49.66 -43.204 -7.363 0
M  V30 82 C -50.291 -42.484 -6.279 0
M  V30 83 C -51.125 -41.339 -6.843 0
M  V30 84 O -52.338 -41.29 -6.631 0
M  V30 85 C -49.218 -41.955 -5.323 0
M  V30 86 C -49.72 -41.574 -3.934 0
M  V30 87 C -48.636 -40.886 -3.085 0
M  V30 88 N -47.391 -41.36 -3.197 0
M  V30 89 O -48.923 -39.943 -2.343 0
M  V30 90 H -48.912 -42.765 -7.86 0
M  V30 91 H -50.953 -43.169 -5.728 0
M  V30 92 H -48.451 -42.735 -5.206 0
M  V30 93 H -48.766 -41.062 -5.779 0
M  V30 94 H -50.572 -40.887 -4.043 0
M  V30 95 H -50.049 -42.486 -3.415 0
M  V30 96 H -47.201 -42.126 -3.811 0
M  V30 97 H -46.65 -40.948 -2.667 0
M  V30 98 N -50.478 -40.445 -7.584 0
M  V30 99 C -51.132 -39.294 -8.192 0
M  V30 100 C -51.637 -39.538 -9.617 0
M  V30 101 O -52.284 -38.661 -10.213 0
M  V30 102 C -50.183 -38.096 -8.209 0
M  V30 103 C -49.64 -37.798 -6.855 0
M  V30 104 C -50.506 -37.482 -5.787 0
M  V30 105 C -48.265 -37.847 -6.617 0
M  V30 106 C -50.008 -37.222 -4.51 0
M  V30 107 C -47.759 -37.595 -5.356 0
M  V30 108 C -48.629 -37.285 -4.307 0
M  V30 109 O -48.113 -37.033 -3.066 0
M  V30 110 H -49.497 -40.568 -7.731 0
M  V30 111 H -52.002 -39.042 -7.568 0
M  V30 112 H -50.73 -37.214 -8.575 0
M  V30 113 H -49.346 -38.315 -8.888 0
M  V30 114 H -51.575 -37.441 -5.961 0
M  V30 115 H -47.588 -38.085 -7.429 0
M  V30 116 H -50.678 -36.976 -3.694 0
M  V30 117 H -46.69 -37.638 -5.181 0
M  V30 118 H -48.821 -36.84 -2.462 0
M  V30 119 N -51.326 -40.707 -10.169 0
M  V30 120 C -51.668 -40.991 -11.553 0
M  V30 121 C -51.077 -42.291 -12.02 0
M  V30 122 O -50.293 -42.915 -11.311 0
M  V30 123 H -50.851 -41.399 -9.625 0
M  V30 124 H -51.286 -40.178 -12.188 0
M  V30 125 H -52.763 -41.044 -11.645 0
M  V30 126 N -51.442 -42.701 -13.222 0
M  V30 127 C -50.972 -43.97 -13.728 0
M  V30 128 C -49.45 -43.949 -13.971 0
M  V30 129 O -48.863 -42.886 -14.199 0
M  V30 130 C -51.775 -44.376 -14.97 0
M  V30 131 C -51.458 -45.764 -15.475 0
M  V30 132 C -51.9 -46.826 -14.521 0
M  V30 133 O -51.045 -47.317 -13.745 0
M  V30 134 O -53.103 -47.17 -14.546 0 CHG=-1
M  V30 135 H -52.044 -42.132 -13.782 0
M  V30 136 H -51.164 -44.728 -12.954 0
M  V30 137 H -52.845 -44.334 -14.72 0
M  V30 138 H -51.558 -43.657 -15.774 0
M  V30 139 H -51.969 -45.917 -16.437 0
M  V30 140 H -50.371 -45.848 -15.62 0
M  V30 141 N -48.824 -45.119 -13.853 0
M  V30 142 C -47.4 -45.284 -14.088 0
M  V30 143 C -47.24 -46.222 -15.273 0
M  V30 144 O -47.741 -47.344 -15.254 0
M  V30 145 C -46.658 -45.892 -12.886 0
M  V30 146 C -45.174 -46.043 -13.204 0
M  V30 147 C -46.851 -45.028 -11.648 0
M  V30 148 H -49.36 -45.922 -13.59 0
M  V30 149 H -46.958 -44.304 -14.321 0
M  V30 150 H -47.076 -46.889 -12.685 0
M  V30 151 H -44.747 -45.057 -13.44 0
M  V30 152 H -44.654 -46.469 -12.333 0
M  V30 153 H -45.05 -46.712 -14.068 0
M  V30 154 H -47.924 -44.954 -11.416 0
M  V30 155 H -46.323 -45.483 -10.797 0
M  V30 156 H -46.446 -44.023 -11.836 0
M  V30 157 N -46.536 -45.772 -16.303 0
M  V30 158 C -46.488 -46.538 -17.526 0
M  V30 159 C -45.108 -47.11 -17.805 0
M  V30 160 O -44.089 -46.509 -17.466 0
M  V30 161 C -46.904 -45.66 -18.714 0
M  V30 162 C -48.369 -45.276 -18.785 0
M  V30 163 C -48.845 -44.08 -18.212 0
M  V30 164 C -49.285 -46.108 -19.434 0
M  V30 165 C -50.22 -43.733 -18.295 0
M  V30 166 C -50.63 -45.774 -19.522 0
M  V30 167 C -51.107 -44.595 -18.959 0
M  V30 168 O -52.475 -44.31 -19.09 0
M  V30 169 H -46.041 -44.906 -16.233 0
M  V30 170 H -47.198 -47.373 -17.434 0
M  V30 171 H -46.655 -46.205 -19.637 0
M  V30 172 H -46.316 -44.732 -18.667 0
M  V30 173 H -48.155 -43.418 -17.702 0
M  V30 174 H -48.938 -47.034 -19.878 0
M  V30 175 H -50.58 -42.812 -17.85 0
M  V30 176 H -51.315 -46.439 -20.035 0
M  V30 177 H -52.668 -43.482 -18.666 0
M  V30 178 N -45.092 -48.282 -18.436 0
M  V30 179 C -43.928 -48.732 -19.177 0
M  V30 180 C -44.018 -48.089 -20.55 0
M  V30 181 O -44.992 -48.295 -21.261 0
M  V30 182 C -43.963 -50.248 -19.339 0
M  V30 183 C -42.697 -50.852 -19.922 0
M  V30 184 C -42.806 -52.353 -20.106 0
M  V30 185 O -42.091 -52.911 -20.956 0
M  V30 186 O -43.623 -52.989 -19.414 0 CHG=-1
M  V30 187 H -45.902 -48.867 -18.399 0
M  V30 188 H -43.003 -48.429 -18.664 0
M  V30 189 H -44.131 -50.695 -18.348 0
M  V30 190 H -44.802 -50.503 -20.003 0
M  V30 191 H -42.503 -50.389 -20.901 0
M  V30 192 H -41.858 -50.639 -19.243 0
M  V30 193 N -42.998 -47.326 -20.92 0
M  V30 194 C -42.947 -46.665 -22.208 0
M  V30 195 C -41.597 -46.867 -22.853 0
M  V30 196 O -40.732 -47.548 -22.304 0
M  V30 197 H -42.235 -47.202 -20.286 0
M  V30 198 H -43.125 -45.588 -22.07 0
M  V30 199 H -43.727 -47.084 -22.861 0
M  V30 200 N -35.044 -47.235 -25.701 0
M  V30 201 C -34.918 -47.558 -24.316 0
M  V30 202 C -36.297 -47.664 -23.677 0
M  V30 203 O -37.083 -46.724 -23.732 0
M  V30 204 C -34.049 -46.482 -23.656 0
M  V30 205 C -33.76 -46.576 -22.158 0
M  V30 206 C -32.841 -47.756 -21.804 0
M  V30 207 C -33.171 -45.257 -21.707 0
M  V30 208 H -35.302 -46.307 -25.969 0
M  V30 209 H -34.414 -48.531 -24.215 0
M  V30 210 H -33.078 -46.491 -24.172 0
M  V30 211 H -34.547 -45.516 -23.828 0
M  V30 212 H -34.714 -46.729 -21.632 0
M  V30 213 H -31.883 -47.647 -22.334 0
M  V30 214 H -32.66 -47.767 -20.719 0
M  V30 215 H -33.322 -48.698 -22.106 0
M  V30 216 H -33.886 -44.447 -21.913 0
M  V30 217 H -32.964 -45.298 -20.627 0
M  V30 218 H -32.235 -45.068 -22.253 0
M  V30 219 N -36.606 -48.826 -23.112 0
M  V30 220 C -37.689 -48.92 -22.133 0
M  V30 221 C -37.4 -48.044 -20.89 0
M  V30 222 O -36.281 -47.995 -20.362 0
M  V30 223 C -37.955 -50.359 -21.714 0
M  V30 224 C -39.14 -50.436 -20.791 0
M  V30 225 O -38.271 -51.128 -22.873 0
M  V30 226 H -36.092 -49.647 -23.359 0
M  V30 227 H -38.602 -48.536 -22.611 0
M  V30 228 H -37.064 -50.769 -21.215 0
M  V30 229 H -38.439 -52.028 -22.62 0
M  V30 230 H -39.767 -49.542 -20.924 0
M  V30 231 H -39.729 -51.335 -21.025 0
M  V30 232 H -38.791 -50.487 -19.749 0
M  V30 233 N -38.435 -47.331 -20.475 0
M  V30 234 C -38.397 -46.384 -19.375 0
M  V30 235 C -39.673 -46.559 -18.552 0
M  V30 236 O -40.637 -47.175 -19.016 0
M  V30 237 C -38.329 -44.927 -19.891 0
M  V30 238 C -37.037 -44.691 -20.573 0
M  V30 239 C -39.489 -44.604 -20.844 0
M  V30 240 H -39.305 -47.453 -20.953 0
M  V30 241 H -37.517 -46.588 -18.748 0
M  V30 242 H -38.397 -44.252 -19.025 0
M  V30 243 H -36.936 -45.388 -21.418 0
M  V30 244 H -37.002 -43.656 -20.945 0
M  V30 245 H -36.213 -44.853 -19.863 0
M  V30 246 H -40.445 -44.749 -20.32 0
M  V30 247 H -39.409 -43.559 -21.178 0
M  V30 248 H -39.444 -45.273 -21.716 0
M  V30 249 N -39.685 -46.022 -17.336 0
M  V30 250 C -40.933 -45.898 -16.586 0
M  V30 251 C -41.366 -44.459 -16.653 0
M  V30 252 O -40.535 -43.529 -16.598 0
M  V30 253 C -40.761 -46.33 -15.164 0
M  V30 254 H -38.83 -45.699 -16.93 0
M  V30 255 H -41.701 -46.531 -17.055 0
M  V30 256 H -41.717 -46.224 -14.63 0
M  V30 257 H -40.441 -47.382 -15.137 0
M  V30 258 H -39.999 -45.702 -14.68 0
M  V30 259 N -42.664 -44.263 -16.782 0
M  V30 260 C -43.193 -42.92 -16.896 0
M  V30 261 C -44.322 -42.661 -15.886 0
M  V30 262 O -45.415 -43.222 -15.995 0
M  V30 263 C -43.705 -42.629 -18.314 0
M  V30 264 C -43.979 -41.162 -18.433 0
M  V30 265 C -42.697 -43.088 -19.386 0
M  V30 266 H -43.286 -45.046 -16.801 0
M  V30 267 H -42.373 -42.22 -16.678 0
M  V30 268 H -44.645 -43.179 -18.468 0
M  V30 269 H -43.054 -40.599 -18.237 0
M  V30 270 H -44.337 -40.937 -19.448 0
M  V30 271 H -44.747 -40.872 -17.701 0
M  V30 272 H -42.522 -44.169 -19.286 0
M  V30 273 H -43.102 -42.873 -20.386 0
M  V30 274 H -41.748 -42.549 -19.251 0
M  V30 275 N -44.048 -41.801 -14.92 0
M  V30 276 C -45.026 -41.478 -13.901 0
M  V30 277 C -45.808 -40.283 -14.364 0
M  V30 278 O -45.229 -39.253 -14.704 0
M  V30 279 C -44.345 -41.142 -12.567 0
M  V30 280 C -43.478 -42.237 -11.999 0
M  V30 281 C -42.949 -41.87 -10.623 0
M  V30 282 C -43.937 -42.222 -9.512 0
M  V30 283 N -43.314 -41.918 -8.218 0 CHG=1
M  V30 284 H -43.148 -41.365 -14.892 0
M  V30 285 H -45.702 -42.334 -13.758 0
M  V30 286 H -43.715 -40.253 -12.72 0
M  V30 287 H -45.13 -40.913 -11.832 0
M  V30 288 H -44.073 -43.159 -11.919 0
M  V30 289 H -42.627 -42.407 -12.675 0
M  V30 290 H -42.01 -42.415 -10.448 0
M  V30 291 H -42.755 -40.788 -10.595 0
M  V30 292 H -44.855 -41.628 -9.63 0
M  V30 293 H -44.185 -43.293 -9.562 0
M  V30 294 H -43.078 -40.939 -8.181 0
M  V30 295 H -43.959 -42.137 -7.475 0
M  V30 296 H -42.477 -42.47 -8.11 0
M  V30 297 N -47.124 -40.415 -14.365 0
M  V30 298 C -47.973 -39.359 -14.897 0
M  V30 299 C -48.824 -38.734 -13.819 0
M  V30 300 O -49.113 -39.365 -12.818 0
M  V30 301 C -48.918 -39.882 -16.015 0
M  V30 302 C -48.1 -40.487 -17.161 0
M  V30 303 O -49.83 -40.857 -15.479 0
M  V30 304 H -47.539 -41.247 -13.997 0
M  V30 305 H -47.32 -38.583 -15.324 0
M  V30 306 H -49.5 -39.036 -16.408 0
M  V30 307 H -50.402 -41.169 -16.17 0
M  V30 308 H -47.102 -40.765 -16.792 0
M  V30 309 H -48.612 -41.382 -17.544 0
M  V30 310 H -47.999 -39.748 -17.969 0
M  V30 311 N -49.255 -37.503 -14.058 0
M  V30 312 C -50.151 -36.811 -13.147 0
M  V30 313 C -51.536 -36.655 -13.764 0
M  V30 314 O -51.666 -36.099 -14.862 0
M  V30 315 C -49.555 -35.445 -12.775 0
M  V30 316 C -50.339 -34.439 -11.912 0
M  V30 317 C -50.579 -34.961 -10.502 0
M  V30 318 C -49.6 -33.113 -11.876 0
M  V30 319 H -48.954 -37.037 -14.89 0
M  V30 320 H -50.248 -37.41 -12.23 0
M  V30 321 H -48.617 -35.65 -12.239 0
M  V30 322 H -49.332 -34.934 -13.723 0
M  V30 323 H -51.32 -34.276 -12.383 0
M  V30 324 H -49.613 -35.163 -10.016 0
M  V30 325 H -51.131 -34.208 -9.921 0
M  V30 326 H -51.166 -35.89 -10.55 0
M  V30 327 H -49.494 -32.724 -12.9 0
M  V30 328 H -50.167 -32.393 -11.267 0
M  V30 329 H -48.603 -33.261 -11.435 0
M  V30 330 N -46.06 -33.885 -6.692 0
M  V30 331 C -45.59 -34.502 -7.926 0
M  V30 332 C -44.345 -33.802 -8.496 0
M  V30 333 O -43.367 -34.454 -8.838 0
M  V30 334 C -46.725 -34.537 -8.959 0
M  V30 335 C -46.447 -35.425 -10.127 0
M  V30 336 C -46.768 -36.783 -10.071 0
M  V30 337 C -45.854 -34.912 -11.278 0
M  V30 338 C -46.505 -37.617 -11.141 0
M  V30 339 C -45.584 -35.734 -12.36 0
M  V30 340 C -45.913 -37.094 -12.292 0
M  V30 341 H -47.029 -33.651 -6.612 0
M  V30 342 H -45.309 -35.54 -7.695 0
M  V30 343 H -47.638 -34.895 -8.46 0
M  V30 344 H -46.888 -33.515 -9.331 0
M  V30 345 H -47.229 -37.188 -9.177 0
M  V30 346 H -45.601 -33.859 -11.328 0
M  V30 347 H -46.757 -38.67 -11.087 0
M  V30 348 H -45.122 -35.328 -13.252 0
M  V30 349 H -45.707 -37.742 -13.136 0
M  V30 350 N -41.053 -34.333 -6.242 0
M  V30 351 C -40.378 -35.598 -6.527 0
M  V30 352 C -39.356 -35.393 -7.648 0
M  V30 353 O -38.215 -35.821 -7.559 0
M  V30 354 C -41.408 -36.65 -6.932 0
M  V30 355 C -40.837 -38.008 -7.265 0
M  V30 356 C -41.9 -39.067 -7.526 0
M  V30 357 O -43.125 -38.758 -7.507 0
M  V30 358 O -41.501 -40.231 -7.759 0 CHG=-1
M  V30 359 H -42.052 -34.305 -6.281 0
M  V30 360 H -39.854 -35.94 -5.622 0
M  V30 361 H -42.116 -36.773 -6.099 0
M  V30 362 H -41.944 -36.279 -7.818 0
M  V30 363 H -40.213 -37.912 -8.166 0
M  V30 364 H -40.214 -38.34 -6.421 0
M  V30 365 N -39.788 -34.712 -8.697 0
M  V30 366 C -38.956 -34.485 -9.849 0
M  V30 367 C -37.791 -33.606 -9.465 0
M  V30 368 O -36.673 -33.874 -9.883 0
M  V30 369 C -39.763 -33.844 -10.964 0
M  V30 370 H -40.718 -34.345 -8.689 0
M  V30 371 H -38.569 -35.451 -10.205 0
M  V30 372 H -39.114 -33.677 -11.837 0
M  V30 373 H -40.592 -34.509 -11.246 0
M  V30 374 H -40.167 -32.881 -10.617 0
M  V30 375 N -35.037 -35.544 -7.633 0
M  V30 376 C -34.314 -36.53 -8.434 0
M  V30 377 C -33.259 -35.877 -9.326 0
M  V30 378 O -32.291 -36.524 -9.734 0
M  V30 379 C -35.288 -37.383 -9.253 0
M  V30 380 C -36.167 -38.235 -8.367 0
M  V30 381 S -37.281 -39.325 -9.23 0
M  V30 382 C -36.176 -40.618 -9.698 0
M  V30 383 H -36 -35.358 -7.827 0
M  V30 384 H -33.788 -37.2 -7.739 0
M  V30 385 H -35.926 -36.718 -9.854 0
M  V30 386 H -34.712 -38.04 -9.921 0
M  V30 387 H -35.514 -38.85 -7.73 0
M  V30 388 H -36.768 -37.563 -7.736 0
M  V30 389 H -35.723 -41.058 -8.797 0
M  V30 390 H -36.731 -41.394 -10.246 0
M  V30 391 H -35.385 -40.209 -10.343 0
M  V30 392 N -27.515 -47.091 -6.736 0
M  V30 393 C -28.61 -47.751 -6.044 0
M  V30 394 C -29.74 -46.824 -5.681 0
M  V30 395 O -30.515 -47.124 -4.768 0
M  V30 396 C -28.116 -48.5 -4.83 0
M  V30 397 C -27.103 -49.562 -5.187 0
M  V30 398 N -27.561 -50.691 -5.727 0
M  V30 399 O -25.923 -49.366 -4.983 0
M  V30 400 H -26.978 -46.397 -6.256 0
M  V30 401 H -29.022 -48.495 -6.741 0
M  V30 402 H -27.649 -47.784 -4.138 0
M  V30 403 H -28.974 -48.981 -4.337 0
M  V30 404 H -28.542 -50.81 -5.881 0
M  V30 405 H -26.924 -51.42 -5.978 0
M  V30 406 N -29.856 -45.72 -6.431 0
M  V30 407 C -31.031 -44.864 -6.366 0
M  V30 408 C -31.672 -44.824 -7.753 0
M  V30 409 O -31.001 -44.463 -8.734 0
M  V30 410 C -30.649 -43.454 -5.954 0
M  V30 411 C -29.974 -43.142 -4.629 0
M  V30 412 C -29.523 -41.659 -4.613 0
M  V30 413 C -30.932 -43.451 -3.47 0
M  V30 414 H -29.113 -45.477 -7.054 0
M  V30 415 H -31.745 -45.275 -5.637 0
M  V30 416 H -29.972 -43.081 -6.736 0
M  V30 417 H -31.581 -42.87 -5.966 0
M  V30 418 H -29.084 -43.779 -4.525 0
M  V30 419 H -30.399 -41.008 -4.749 0
M  V30 420 H -29.044 -41.432 -3.649 0
M  V30 421 H -28.806 -41.485 -5.429 0
M  V30 422 H -31.215 -44.513 -3.502 0
M  V30 423 H -30.434 -43.233 -2.514 0
M  V30 424 H -31.834 -42.828 -3.564 0
M  V30 425 N -32.955 -45.17 -7.864 0
M  V30 426 C -33.552 -45.24 -9.207 0
M  V30 427 C -33.321 -43.887 -9.91 0
M  V30 428 O -33.439 -42.819 -9.268 0
M  V30 429 C -35.022 -45.727 -9.193 0
M  V30 430 C -36.02 -44.597 -8.883 0
M  V30 431 C -35.358 -46.35 -10.518 0
M  V30 432 H -33.5 -45.378 -7.052 0
M  V30 433 H -32.989 -45.995 -9.775 0
M  V30 434 H -35.12 -46.492 -8.409 0
M  V30 435 H -35.926 -43.806 -9.642 0
M  V30 436 H -37.044 -44.998 -8.897 0
M  V30 437 H -35.803 -44.179 -7.889 0
M  V30 438 H -34.684 -47.199 -10.705 0
M  V30 439 H -36.399 -46.705 -10.503 0
M  V30 440 H -35.237 -45.603 -11.316 0
M  V30 441 N -32.921 -43.932 -11.186 0
M  V30 442 C -32.366 -42.741 -11.865 0
M  V30 443 C -33.389 -41.936 -12.682 0
M  V30 444 O -34.09 -42.489 -13.543 0
M  V30 445 C -31.164 -43.125 -12.749 0
M  V30 446 C -30.515 -41.92 -13.537 0
M  V30 447 C -29.923 -40.873 -12.593 0
M  V30 448 N -30.262 -39.576 -12.801 0
M  V30 449 O -29.183 -41.238 -11.66 0
M  V30 450 H -32.999 -44.791 -11.692 0
M  V30 451 H -31.995 -42.072 -11.074 0
M  V30 452 H -30.391 -43.569 -12.104 0
M  V30 453 H -31.502 -43.872 -13.482 0
M  V30 454 H -29.715 -42.308 -14.184 0
M  V30 455 H -31.288 -41.443 -14.157 0
M  V30 456 H -30.878 -39.334 -13.55 0
M  V30 457 H -29.895 -38.862 -12.205 0
M  V30 458 N -33.455 -40.631 -12.431 0
M  V30 459 C -34.229 -39.731 -13.278 0
M  V30 460 C -33.626 -39.654 -14.685 0
M  V30 461 O -32.393 -39.529 -14.812 0
M  V30 462 C -34.242 -38.32 -12.683 0
M  V30 463 C -35.093 -37.301 -13.446 0
M  V30 464 C -36.562 -37.702 -13.443 0
M  V30 465 C -34.912 -35.927 -12.866 0
M  V30 466 H -32.963 -40.259 -11.644 0
M  V30 467 H -35.261 -40.107 -13.346 0
M  V30 468 H -34.63 -38.387 -11.656 0
M  V30 469 H -33.206 -37.95 -12.66 0
M  V30 470 H -34.748 -37.281 -14.49 0
M  V30 471 H -36.922 -37.767 -12.406 0
M  V30 472 H -37.149 -36.948 -13.988 0
M  V30 473 H -36.676 -38.68 -13.933 0
M  V30 474 H -33.852 -35.639 -12.929 0
M  V30 475 H -35.522 -35.207 -13.432 0
M  V30 476 H -35.23 -35.929 -11.813 0
M  V30 477 N -34.475 -39.708 -15.721 0
M  V30 478 C -34.01 -39.62 -17.108 0
M  V30 479 C -34.43 -38.306 -17.791 0
M  V30 480 O -33.678 -37.747 -18.602 0
M  V30 481 C -34.494 -40.824 -17.922 0
M  V30 482 C -33.951 -42.201 -17.507 0
M  V30 483 C -34.61 -43.318 -18.294 0
M  V30 484 C -32.478 -42.283 -17.681 0
M  V30 485 H -35.453 -39.811 -15.542 0
M  V30 486 H -32.91 -39.646 -17.089 0
M  V30 487 H -35.591 -40.861 -17.843 0
M  V30 488 H -34.207 -40.655 -18.97 0
M  V30 489 H -34.181 -42.347 -16.441 0
M  V30 490 H -34.423 -43.17 -19.368 0
M  V30 491 H -34.191 -44.285 -17.979 0
M  V30 492 H -35.694 -43.309 -18.106 0
M  V30 493 H -31.993 -41.51 -17.067 0
M  V30 494 H -32.126 -43.276 -17.365 0
M  V30 495 H -32.224 -42.124 -18.739 0
M  V30 496 N -35.616 -37.816 -17.451 0
M  V30 497 C -36.05 -36.512 -17.884 0
M  V30 498 C -37.448 -36.221 -17.393 0
M  V30 499 O -38.076 -37.074 -16.75 0
M  V30 500 H -36.224 -38.366 -16.879 0
M  V30 501 H -36.039 -36.475 -18.983 0
M  V30 502 H -35.362 -35.752 -17.485 0
M  V30 503 N -45.124 -35.5 -16.837 0
M  V30 504 C -44.409 -36.771 -16.867 0
M  V30 505 C -43.145 -36.659 -16.072 0
M  V30 506 O -42.432 -35.655 -16.156 0
M  V30 507 C -43.978 -37.183 -18.289 0
M  V30 508 C -45.058 -37.581 -19.281 0
M  V30 509 C -44.726 -37.844 -20.618 0
M  V30 510 C -46.394 -37.668 -18.91 0
M  V30 511 C -45.701 -38.197 -21.557 0
M  V30 512 C -47.366 -38.026 -19.819 0
M  V30 513 C -47.014 -38.29 -21.142 0
M  V30 514 O -47.998 -38.628 -22.036 0
M  V30 515 H -44.628 -34.665 -17.077 0
M  V30 516 H -45.057 -37.551 -16.44 0
M  V30 517 H -43.297 -38.041 -18.187 0
M  V30 518 H -43.434 -36.332 -18.724 0
M  V30 519 H -43.691 -37.772 -20.931 0
M  V30 520 H -46.677 -37.45 -17.887 0
M  V30 521 H -45.431 -38.393 -22.588 0
M  V30 522 H -48.401 -38.102 -19.506 0
M  V30 523 H -47.611 -38.779 -22.891 0
M  V30 524 N -42.856 -37.703 -15.313 0
M  V30 525 C -41.526 -37.906 -14.762 0
M  V30 526 C -41.039 -39.213 -15.353 0
M  V30 527 O -41.729 -40.243 -15.225 0
M  V30 528 C -41.528 -38 -13.214 0
M  V30 529 C -41.985 -36.68 -12.585 0
M  V30 530 C -40.146 -38.307 -12.693 0
M  V30 531 C -42.094 -36.733 -10.995 0
M  V30 532 H -43.572 -38.371 -15.113 0
M  V30 533 H -40.868 -37.08 -15.068 0
M  V30 534 H -42.216 -38.803 -12.911 0
M  V30 535 H -41.263 -35.897 -12.858 0
M  V30 536 H -42.974 -36.425 -12.993 0
M  V30 537 H -39.451 -37.514 -13.007 0
M  V30 538 H -40.171 -38.358 -11.595 0
M  V30 539 H -39.808 -39.272 -13.098 0
M  V30 540 H -41.112 -36.986 -10.568 0
M  V30 541 H -42.416 -35.752 -10.617 0
M  V30 542 H -42.829 -37.498 -10.703 0
M  V30 543 N -39.869 -39.171 -15.993 0
M  V30 544 C -39.306 -40.337 -16.69 0
M  V30 545 C -38.121 -40.916 -15.931 0
M  V30 546 O -37.19 -40.198 -15.576 0
M  V30 547 C -38.918 -40.019 -18.17 0
M  V30 548 C -40.131 -39.498 -18.955 0
M  V30 549 C -38.401 -41.248 -18.881 0
M  V30 550 C -39.983 -38.077 -19.302 0
M  V30 551 H -39.355 -38.313 -15.999 0
M  V30 552 H -40.09 -41.108 -16.717 0
M  V30 553 H -38.133 -39.249 -18.166 0
M  V30 554 H -40.234 -40.082 -19.881 0
M  V30 555 H -41.034 -39.623 -18.34 0
M  V30 556 H -39.176 -42.029 -18.875 0
M  V30 557 H -38.148 -40.991 -19.92 0
M  V30 558 H -37.503 -41.619 -18.366 0
M  V30 559 H -39.079 -37.941 -19.914 0
M  V30 560 H -40.864 -37.745 -19.87 0
M  V30 561 H -39.895 -37.482 -18.381 0
M  V30 562 N -38.163 -42.219 -15.703 0
M  V30 563 C -37.251 -42.872 -14.782 0
M  V30 564 C -36.811 -44.199 -15.393 0
M  V30 565 O -37.613 -44.842 -16.108 0
M  V30 566 C -37.958 -43.102 -13.403 0
M  V30 567 C -38.522 -41.769 -12.878 0
M  V30 568 C -37.03 -43.778 -12.418 0
M  V30 569 C -39.115 -41.796 -11.465 0
M  V30 570 H -38.846 -42.772 -16.181 0
M  V30 571 H -36.368 -42.234 -14.629 0
M  V30 572 H -38.808 -43.78 -13.568 0
M  V30 573 H -37.705 -41.033 -12.885 0
M  V30 574 H -39.314 -41.444 -13.569 0
M  V30 575 H -36.139 -43.152 -12.264 0
M  V30 576 H -37.551 -43.916 -11.459 0
M  V30 577 H -36.726 -44.758 -12.814 0
M  V30 578 H -38.342 -42.111 -10.749 0
M  V30 579 H -39.474 -40.791 -11.199 0
M  V30 580 H -39.955 -42.505 -11.433 0
M  V30 581 N -35.557 -44.608 -15.123 0
M  V30 582 C -35.048 -45.92 -15.583 0
M  V30 583 C -36.045 -47.004 -15.227 0
M  V30 584 O -36.719 -46.918 -14.188 0
M  V30 585 C -33.655 -46.26 -15.019 0
M  V30 586 C -33.582 -46.418 -13.488 0
M  V30 587 C -32.198 -46.856 -12.983 0
M  V30 588 O -31.705 -46.313 -11.955 0
M  V30 589 O -31.602 -47.747 -13.626 0 CHG=-1
M  V30 590 H -34.953 -44.009 -14.597 0
M  V30 591 H -34.961 -45.88 -16.679 0
M  V30 592 H -33.326 -47.206 -15.474 0
M  V30 593 H -32.965 -45.454 -15.31 0
M  V30 594 H -33.832 -45.452 -13.026 0
M  V30 595 H -34.32 -47.173 -13.18 0
M  V30 596 N -36.183 -47.985 -16.122 0
M  V30 597 C -37.113 -49.091 -15.936 0
M  V30 598 C -36.427 -50.187 -15.105 0
M  V30 599 O -35.33 -50.644 -15.443 0
M  V30 600 C -37.577 -49.631 -17.294 0
M  V30 601 C -38.653 -50.718 -17.197 0
M  V30 602 C -39.931 -50.423 -16.714 0
M  V30 603 C -38.38 -52.024 -17.583 0
M  V30 604 C -40.911 -51.421 -16.605 0
M  V30 605 C -39.356 -53.035 -17.487 0
M  V30 606 C -40.627 -52.735 -17.004 0
M  V30 607 H -35.626 -47.96 -16.952 0
M  V30 608 H -37.994 -48.729 -15.385 0
M  V30 609 H -37.983 -48.793 -17.879 0
M  V30 610 H -36.705 -50.053 -17.815 0
M  V30 611 H -40.169 -49.407 -16.419 0
M  V30 612 H -37.396 -52.27 -17.966 0
M  V30 613 H -41.891 -51.176 -16.211 0
M  V30 614 H -39.117 -54.048 -17.79 0
M  V30 615 H -41.386 -53.506 -16.937 0
M  V30 616 N -37.058 -50.59 -14.015 0
M  V30 617 C -36.57 -51.725 -13.234 0
M  V30 618 C -37.515 -52.896 -13.475 0
M  V30 619 O -38.698 -52.814 -13.15 0
M  V30 620 C -36.521 -51.378 -11.748 0
M  V30 621 C -35.771 -50.117 -11.411 0
M  V30 622 S -34.049 -50.327 -11.753 0
M  V30 623 C -33.625 -51.622 -10.585 0
M  V30 624 H -37.884 -50.11 -13.72 0
M  V30 625 H -35.558 -51.994 -13.571 0
M  V30 626 H -37.555 -51.265 -11.39 0
M  V30 627 H -36.039 -52.213 -11.219 0
M  V30 628 H -36.164 -49.287 -12.016 0
M  V30 629 H -35.905 -49.888 -10.344 0
M  V30 630 H -34.235 -52.514 -10.79 0
M  V30 631 H -32.559 -51.875 -10.688 0
M  V30 632 H -33.821 -51.271 -9.561 0
M  V30 633 N -36.981 -53.982 -14.023 0
M  V30 634 C -37.771 -55.02 -14.692 0
M  V30 635 C -38.57 -55.884 -13.745 0
M  V30 636 O -39.637 -56.368 -14.107 0
M  V30 637 C -36.893 -55.93 -15.547 0
M  V30 638 C -36.226 -55.155 -16.681 0
M  V30 639 O -35.867 -56.48 -14.732 0
M  V30 640 H -35.989 -54.097 -13.977 0
M  V30 641 H -38.482 -54.507 -15.356 0
M  V30 642 H -37.51 -56.737 -15.969 0
M  V30 643 H -35.316 -57.048 -15.257 0
M  V30 644 H -36.201 -54.085 -16.428 0
M  V30 645 H -35.199 -55.523 -16.822 0
M  V30 646 H -36.798 -55.299 -17.61 0
M  V30 647 N -38.085 -56.04 -12.517 0
M  V30 648 C -38.797 -56.888 -11.572 0
M  V30 649 C -39.812 -56.222 -10.656 0
M  V30 650 O -40.438 -56.926 -9.866 0
M  V30 651 C -37.824 -57.71 -10.744 0
M  V30 652 C -37.132 -58.783 -11.529 0
M  V30 653 C -35.913 -58.532 -12.159 0
M  V30 654 C -37.676 -60.063 -11.63 0
M  V30 655 C -35.257 -59.52 -12.893 0
M  V30 656 C -37.014 -61.072 -12.351 0
M  V30 657 C -35.813 -60.782 -12.976 0
M  V30 658 O -35.154 -61.758 -13.686 0
M  V30 659 H -37.24 -55.58 -12.245 0
M  V30 660 H -39.372 -57.595 -12.188 0
M  V30 661 H -38.38 -58.184 -9.921 0
M  V30 662 H -37.061 -57.034 -10.33 0
M  V30 663 H -35.466 -57.548 -12.076 0
M  V30 664 H -38.621 -60.283 -11.147 0
M  V30 665 H -34.321 -59.3 -13.393 0
M  V30 666 H -37.439 -62.067 -12.417 0
M  V30 667 H -34.353 -61.399 -14.049 0
M  V30 668 N -39.991 -54.897 -10.738 0
M  V30 669 C -40.928 -54.207 -9.827 0
M  V30 670 C -40.53 -54.158 -8.34 0
M  V30 671 O -39.34 -54.195 -7.993 0
M  V30 672 H -39.486 -54.37 -11.422 0
M  V30 673 H -41.899 -54.719 -9.896 0
M  V30 674 H -41.034 -53.17 -10.179 0
M  V30 675 N -41.518 -54.091 -7.445 0
M  V30 676 C -41.223 -53.731 -6.055 0
M  V30 677 C -40.523 -54.832 -5.24 0
M  V30 678 O -40.742 -56.032 -5.492 0
M  V30 679 C -42.453 -53.149 -5.354 0
M  V30 680 C -43.378 -54.204 -4.846 0
M  V30 681 N -44.43 -54.507 -5.611 0
M  V30 682 O -43.159 -54.748 -3.756 0
M  V30 683 H -42.459 -54.286 -7.723 0
M  V30 684 H -40.494 -52.909 -6.113 0
M  V30 685 H -42.117 -52.536 -4.504 0
M  V30 686 H -42.999 -52.516 -6.069 0
M  V30 687 H -44.569 -54.033 -6.481 0
M  V30 688 H -45.079 -55.207 -5.314 0
M  V30 689 N -39.669 -54.426 -4.29 0
M  V30 690 C -38.881 -55.397 -3.522 0
M  V30 691 C -39.751 -56.325 -2.675 0
M  V30 692 O -39.475 -57.513 -2.58 0
M  V30 693 C -37.813 -54.699 -2.694 0
M  V30 694 C -36.85 -55.516 -1.823 0
M  V30 695 C -36.02 -56.482 -2.641 0
M  V30 696 C -35.949 -54.575 -1.002 0
M  V30 697 H -39.568 -53.449 -4.102 0
M  V30 698 H -38.358 -56.033 -4.251 0
M  V30 699 H -37.193 -54.125 -3.398 0
M  V30 700 H -38.338 -54.007 -2.02 0
M  V30 701 H -37.454 -56.108 -1.12 0
M  V30 702 H -35.432 -55.923 -3.383 0
M  V30 703 H -35.34 -57.035 -1.976 0
M  V30 704 H -36.685 -57.19 -3.158 0
M  V30 705 H -36.574 -53.936 -0.361 0
M  V30 706 H -35.271 -55.172 -0.375 0
M  V30 707 H -35.359 -53.945 -1.684 0
M  V30 708 N -40.839 -55.787 -2.124 0
M  V30 709 C -41.775 -56.566 -1.306 0
M  V30 710 C -42.358 -57.779 -2.02 0
M  V30 711 O -42.277 -58.9 -1.508 0
M  V30 712 C -42.913 -55.68 -0.76 0
M  V30 713 C -43.853 -56.463 0.145 0
M  V30 714 C -43.09 -56.927 1.444 0
M  V30 715 C -45.103 -55.673 0.47 0
M  V30 716 H -41.024 -54.816 -2.274 0
M  V30 717 H -41.205 -56.943 -0.444 0
M  V30 718 H -42.474 -54.85 -0.186 0
M  V30 719 H -43.488 -55.276 -1.607 0
M  V30 720 H -44.168 -57.366 -0.398 0
M  V30 721 H -42.709 -56.045 1.98 0
M  V30 722 H -43.78 -57.483 2.096 0
M  V30 723 H -42.248 -57.577 1.162 0
M  V30 724 H -45.632 -55.425 -0.462 0
M  V30 725 H -45.76 -56.275 1.116 0
M  V30 726 H -44.825 -54.746 0.992 0
M  V30 727 N -42.96 -57.566 -3.189 0
M  V30 728 C -43.497 -58.689 -3.974 0
M  V30 729 C -42.361 -59.57 -4.49 0
M  V30 730 O -42.494 -60.787 -4.558 0
M  V30 731 C -44.367 -58.22 -5.133 0
M  V30 732 C -45.688 -57.599 -4.681 0
M  V30 733 O -46.368 -58.164 -3.798 0
M  V30 734 O -46.06 -56.544 -5.236 0 CHG=-1
M  V30 735 H -43.048 -56.633 -3.537 0
M  V30 736 H -44.125 -59.296 -3.306 0
M  V30 737 H -43.807 -57.469 -5.709 0
M  V30 738 H -44.589 -59.085 -5.776 0
M  V30 739 N -41.229 -58.96 -4.804 0
M  V30 740 C -40.082 -59.735 -5.216 0
M  V30 741 C -39.664 -60.743 -4.135 0
M  V30 742 O -39.375 -61.902 -4.443 0
M  V30 743 C -38.918 -58.824 -5.573 0
M  V30 744 C -37.757 -59.564 -6.145 0
M  V30 745 C -37.754 -59.955 -7.492 0
M  V30 746 C -36.653 -59.891 -5.357 0
M  V30 747 C -36.664 -60.648 -8.034 0
M  V30 748 C -35.56 -60.579 -5.886 0
M  V30 749 C -35.576 -60.957 -7.222 0
M  V30 750 O -34.51 -61.629 -7.773 0
M  V30 751 H -41.168 -57.963 -4.756 0
M  V30 752 H -40.362 -60.301 -6.117 0
M  V30 753 H -38.588 -58.303 -4.662 0
M  V30 754 H -39.263 -58.087 -6.313 0
M  V30 755 H -38.605 -59.718 -8.121 0
M  V30 756 H -36.644 -59.605 -4.312 0
M  V30 757 H -36.668 -60.941 -9.078 0
M  V30 758 H -34.707 -60.816 -5.26 0
M  V30 759 H -34.687 -61.807 -8.689 0
M  V30 760 N -39.663 -60.324 -2.865 0
M  V30 761 C -39.343 -61.261 -1.773 0
M  V30 762 C -40.408 -62.335 -1.524 0
M  V30 763 O -40.081 -63.499 -1.27 0
M  V30 764 C -39.007 -60.516 -0.482 0
M  V30 765 C -37.767 -59.61 -0.53 0
M  V30 766 C -37.924 -58.485 0.499 0
M  V30 767 C -36.522 -60.425 -0.275 0
M  V30 768 H -39.88 -59.371 -2.655 0
M  V30 769 H -38.432 -61.795 -2.082 0
M  V30 770 H -39.872 -59.889 -0.22 0
M  V30 771 H -38.846 -61.266 0.307 0
M  V30 772 H -37.691 -59.162 -1.532 0
M  V30 773 H -38.035 -58.92 1.503 0
M  V30 774 H -37.034 -57.84 0.475 0
M  V30 775 H -38.816 -57.888 0.257 0
M  V30 776 H -36.436 -61.212 -1.039 0
M  V30 777 H -35.639 -59.77 -0.321 0
M  V30 778 H -36.584 -60.887 0.721 0
M  V30 779 N -41.677 -61.966 -1.6 0
M  V30 780 C -42.747 -62.946 -1.393 0
M  V30 781 C -42.773 -64.065 -2.444 0
M  V30 782 O -43.127 -65.197 -2.148 0
M  V30 783 C -44.077 -62.233 -1.36 0
M  V30 784 C -44.132 -61.178 -0.31 0
M  V30 785 C -45.504 -60.605 -0.2 0
M  V30 786 N -45.611 -59.868 1.048 0
M  V30 787 C -46.655 -59.123 1.408 0
M  V30 788 N -47.687 -59.007 0.602 0 CHG=1
M  V30 789 N -46.66 -58.478 2.579 0
M  V30 790 H -41.907 -61.013 -1.8 0
M  V30 791 H -42.582 -63.417 -0.413 0
M  V30 792 H -44.251 -61.765 -2.34 0
M  V30 793 H -44.868 -62.971 -1.161 0
M  V30 794 H -43.847 -61.618 0.657 0
M  V30 795 H -43.427 -60.375 -0.57 0
M  V30 796 H -45.689 -59.927 -1.046 0
M  V30 797 H -46.245 -61.418 -0.213 0
M  V30 798 H -44.819 -59.926 1.704 0
M  V30 799 H -47.688 -59.492 -0.307 0
M  V30 800 H -48.495 -58.431 0.879 0
M  V30 801 H -45.851 -58.554 3.213 0
M  V30 802 H -47.472 -57.905 2.848 0
M  V30 803 N -42.342 -63.744 -3.658 0
M  V30 804 C -42.536 -64.587 -4.819 0
M  V30 805 C -41.304 -65.339 -5.289 0
M  V30 806 O -41.392 -66.183 -6.168 0
M  V30 807 C -43.04 -63.703 -5.97 0
M  V30 808 C -44.488 -63.364 -5.786 0
M  V30 809 C -44.92 -62.211 -6.608 0
M  V30 810 O -44.05 -61.601 -7.3 0
M  V30 811 O -46.141 -61.924 -6.56 0 CHG=-1
M  V30 812 H -41.859 -62.876 -3.776 0
M  V30 813 H -43.307 -65.331 -4.57 0
M  V30 814 H -42.452 -62.773 -5.995 0
M  V30 815 H -42.914 -64.242 -6.921 0
M  V30 816 H -45.092 -64.24 -6.066 0
M  V30 817 H -44.66 -63.123 -4.727 0
M  V30 818 N -40.159 -65.018 -4.713 0
M  V30 819 C -38.899 -65.494 -5.227 0
M  V30 820 C -38.672 -66.968 -4.884 0
M  V30 821 O -39.435 -67.597 -4.127 0
M  V30 822 C -37.756 -64.644 -4.663 0
M  V30 823 S -37.38 -65.02 -2.907 0
M  V30 824 H -40.167 -64.432 -3.903 0
M  V30 825 H -38.909 -65.391 -6.322 0
M  V30 826 H -36.853 -64.83 -5.262 0
M  V30 827 H -38.036 -63.583 -4.742 0
M  V30 828 H -36.623 -64.433 -2.592 0
M  V30 829 N -28.805 -51.133 -0.387 0
M  V30 830 C -29.667 -50.091 0.135 0
M  V30 831 C -28.877 -49.181 1.062 0
M  V30 832 O -29.042 -47.954 1.017 0
M  V30 833 C -30.894 -50.707 0.853 0
M  V30 834 C -31.681 -51.568 -0.142 0
M  V30 835 C -31.795 -49.63 1.494 0
M  V30 836 C -32.452 -52.645 0.48 0
M  V30 837 H -28.959 -52.079 -0.101 0
M  V30 838 H -30.033 -49.488 -0.709 0
M  V30 839 H -30.527 -51.359 1.659 0
M  V30 840 H -32.378 -50.915 -0.688 0
M  V30 841 H -30.968 -52.017 -0.849 0
M  V30 842 H -32.154 -48.941 0.715 0
M  V30 843 H -32.655 -50.113 1.981 0
M  V30 844 H -31.218 -49.068 2.243 0
M  V30 845 H -33.173 -52.216 1.191 0
M  V30 846 H -32.992 -53.205 -0.297 0
M  V30 847 H -31.77 -53.323 1.014 0
M  V30 848 N -35.028 -39.567 3.153 0
M  V30 849 C -35.973 -40.193 2.26 0
M  V30 850 C -37.416 -40.161 2.787 0
M  V30 851 O -38.334 -39.696 2.097 0
M  V30 852 C -35.546 -41.64 2.033 0
M  V30 853 C -36.41 -42.347 1.051 0
M  V30 854 C -36.262 -42.553 -0.279 0
M  V30 855 N -37.638 -42.875 1.396 0
M  V30 856 C -38.194 -43.403 0.319 0
M  V30 857 N -37.382 -43.224 -0.707 0
M  V30 858 H -34.627 -40.115 3.887 0
M  V30 859 H -35.948 -39.657 1.3 0
M  V30 860 H -34.511 -41.647 1.66 0
M  V30 861 H -35.593 -42.175 2.993 0
M  V30 862 H -38.053 -42.86 2.338 0
M  V30 863 H -35.416 -42.245 -0.893 0
M  V30 864 H -39.161 -43.903 0.284 0
M  V30 865 N -39.586 -42.594 3.536 0
M  V30 866 C -40.539 -43.609 3.05 0
M  V30 867 C -39.8 -44.908 2.658 0
M  V30 868 O -40.21 -45.635 1.757 0
M  V30 869 C -41.322 -43.053 1.845 0
M  V30 870 C -42.746 -43.624 1.732 0
M  V30 871 O -43.191 -44.474 2.565 0
M  V30 872 O -43.422 -43.207 0.769 0 CHG=-1
M  V30 873 H -38.639 -42.63 3.216 0
M  V30 874 H -41.25 -43.84 3.857 0
M  V30 875 H -41.391 -41.96 1.947 0
M  V30 876 H -40.772 -43.302 0.926 0
M  V30 877 N -38.716 -45.197 3.369 0
M  V30 878 C -37.951 -46.409 3.149 0
M  V30 879 C -38.753 -47.599 3.624 0
M  V30 880 O -39.145 -47.648 4.77 0
M  V30 881 C -36.633 -46.29 3.902 0
M  V30 882 C -35.476 -47.18 3.509 0
M  V30 883 C -35.163 -46.959 2.035 0
M  V30 884 C -34.234 -46.853 4.402 0
M  V30 885 H -38.418 -44.558 4.079 0
M  V30 886 H -37.743 -46.524 2.075 0
M  V30 887 H -36.291 -45.25 3.79 0
M  V30 888 H -36.849 -46.493 4.961 0
M  V30 889 H -35.758 -48.232 3.662 0
M  V30 890 H -34.904 -45.903 1.869 0
M  V30 891 H -34.315 -47.595 1.741 0
M  V30 892 H -36.044 -47.22 1.43 0
M  V30 893 H -34.489 -47.017 5.459 0
M  V30 894 H -33.397 -47.509 4.121 0
M  V30 895 H -33.942 -45.803 4.254 0
M  V30 896 N -39.037 -48.525 2.716 0
M  V30 897 C -39.824 -49.75 2.972 0
M  V30 898 C -39.605 -50.667 1.767 0
M  V30 899 O -39.302 -50.187 0.666 0
M  V30 900 C -41.307 -49.423 3.098 0
M  V30 901 H -38.692 -48.383 1.788 0
M  V30 902 H -39.475 -50.238 3.894 0
M  V30 903 H -41.872 -50.348 3.288 0
M  V30 904 H -41.459 -48.723 3.933 0
M  V30 905 H -41.661 -48.962 2.164 0
M  V30 906 N -39.771 -51.967 1.931 0
M  V30 907 C -39.69 -52.854 0.772 0
M  V30 908 C -40.58 -52.361 -0.389 0
M  V30 909 O -40.122 -52.361 -1.546 0
M  V30 910 C -40.072 -54.279 1.156 0
M  V30 911 H -39.951 -52.341 2.841 0
M  V30 912 H -38.647 -52.86 0.423 0
M  V30 913 H -40.004 -54.928 0.271 0
M  V30 914 H -39.385 -54.646 1.933 0
M  V30 915 H -41.102 -54.291 1.542 0
M  V30 916 N -41.816 -51.916 -0.093 0
M  V30 917 C -42.759 -51.516 -1.169 0
M  V30 918 C -42.252 -50.348 -2.039 0
M  V30 919 O -42.794 -50.094 -3.123 0
M  V30 920 C -44.162 -51.182 -0.63 0
M  V30 921 C -44.178 -49.991 0.288 0
M  V30 922 C -45.542 -49.69 0.937 0
M  V30 923 N -45.329 -48.643 1.94 0
M  V30 924 C -44.938 -48.862 3.203 0
M  V30 925 N -44.765 -50.089 3.675 0 CHG=1
M  V30 926 N -44.749 -47.852 4.009 0
M  V30 927 H -42.103 -51.854 0.863 0
M  V30 928 H -42.863 -52.388 -1.831 0
M  V30 929 H -44.824 -50.974 -1.484 0
M  V30 930 H -44.54 -52.054 -0.077 0
M  V30 931 H -43.449 -50.17 1.092 0
M  V30 932 H -43.874 -49.108 -0.293 0
M  V30 933 H -46.253 -49.34 0.174 0
M  V30 934 H -45.938 -50.597 1.418 0
M  V30 935 H -45.492 -47.667 1.653 0
M  V30 936 H -44.932 -50.903 3.067 0
M  V30 937 H -44.464 -50.228 4.65 0
M  V30 938 H -44.9 -46.89 3.673 0
M  V30 939 H -44.448 -48.017 4.98 0
M  V30 940 N -41.225 -49.643 -1.562 0
M  V30 941 C -40.706 -48.46 -2.255 0
M  V30 942 C -39.312 -48.639 -2.826 0
M  V30 943 O -38.708 -47.669 -3.276 0
M  V30 944 C -40.742 -47.231 -1.342 0
M  V30 945 C -42.148 -46.834 -0.986 0
M  V30 946 N -42.342 -46.212 0.204 0
M  V30 947 O -43.068 -47.088 -1.776 0
M  V30 948 H -40.796 -49.93 -0.706 0
M  V30 949 H -41.379 -48.266 -3.103 0
M  V30 950 H -40.193 -47.46 -0.417 0
M  V30 951 H -40.256 -46.39 -1.859 0
M  V30 952 H -41.565 -46.034 0.807 0
M  V30 953 H -43.262 -45.932 0.478 0
M  V30 954 N -38.799 -49.869 -2.764 0
M  V30 955 C -37.555 -50.237 -3.42 0
M  V30 956 C -37.921 -51.021 -4.654 0
M  V30 957 O -38.955 -51.69 -4.716 0
M  V30 958 C -36.706 -51.118 -2.518 0
M  V30 959 S -36.135 -50.255 -1.063 0
M  V30 960 H -39.291 -50.567 -2.244 0
M  V30 961 H -36.991 -49.333 -3.692 0
M  V30 962 H -37.307 -51.983 -2.202 0
M  V30 963 H -35.832 -51.467 -3.087 0
M  V30 964 H -35.579 -50.878 -0.499 0
M  V30 965 N -37.027 -50.978 -5.619 0
M  V30 966 C -37.277 -51.5 -6.929 0
M  V30 967 C -36.175 -52.489 -7.262 0
M  V30 968 O -35.026 -52.305 -6.845 0
M  V30 969 C -37.258 -50.318 -7.896 0
M  V30 970 C -38.487 -49.936 -8.721 0
M  V30 971 C -39.759 -50.623 -8.328 0
M  V30 972 C -38.63 -48.412 -8.783 0
M  V30 973 H -36.137 -50.564 -5.43 0
M  V30 974 H -38.255 -52.003 -6.966 0
M  V30 975 H -37 -49.432 -7.297 0
M  V30 976 H -36.452 -50.521 -8.617 0
M  V30 977 H -38.278 -50.271 -9.748 0
M  V30 978 H -39.992 -50.39 -7.278 0
M  V30 979 H -40.579 -50.273 -8.972 0
M  V30 980 H -39.64 -51.71 -8.445 0
M  V30 981 H -37.729 -47.977 -9.241 0
M  V30 982 H -39.511 -48.151 -9.387 0
M  V30 983 H -38.752 -48.014 -7.765 0
M  V30 984 N -36.514 -53.524 -8.026 0
M  V30 985 C -35.569 -54.616 -8.316 0
M  V30 986 C -35.308 -54.795 -9.825 0
M  V30 987 O -36.249 -54.796 -10.637 0
M  V30 988 C -36.083 -55.95 -7.715 0
M  V30 989 C -35.116 -57.102 -7.965 0
M  V30 990 C -36.333 -55.787 -6.245 0
M  V30 991 H -37.435 -53.562 -8.414 0
M  V30 992 H -34.612 -54.366 -7.835 0
M  V30 993 H -37.037 -56.197 -8.203 0
M  V30 994 H -34.141 -56.867 -7.514 0
M  V30 995 H -35.517 -58.022 -7.513 0
M  V30 996 H -34.993 -57.249 -9.048 0
M  V30 997 H -37.081 -54.996 -6.086 0
M  V30 998 H -36.707 -56.734 -5.829 0
M  V30 999 H -35.395 -55.511 -5.742 0
M  V30 1000 N -34.028 -54.926 -10.171 0
M  V30 1001 C -33.576 -55.271 -11.529 0
M  V30 1002 C -32.972 -56.67 -11.601 0
M  V30 1003 O -33.225 -57.52 -10.742 0
M  V30 1004 H -33.333 -54.781 -9.467 0
M  V30 1005 H -32.816 -54.541 -11.845 0
M  V30 1006 H -34.437 -55.222 -12.211 0
M  V30 1007 N -32.158 -56.93 -12.612 0
M  V30 1008 C -31.705 -58.301 -12.842 0
M  V30 1009 C -30.614 -58.616 -11.868 0
M  V30 1010 O -29.745 -57.77 -11.614 0
M  V30 1011 C -31.136 -58.469 -14.251 0
M  V30 1012 C -31.937 -57.762 -15.336 0
M  V30 1013 C -33.183 -58.529 -15.731 0
M  V30 1014 O -33.253 -59.759 -15.451 0
M  V30 1015 O -34.088 -57.898 -16.337 0 CHG=-1
M  V30 1016 H -31.854 -56.193 -13.215 0
M  V30 1017 H -32.549 -58.993 -12.701 0
M  V30 1018 H -30.112 -58.066 -14.26 0
M  V30 1019 H -31.109 -59.543 -14.487 0
M  V30 1020 H -32.236 -56.771 -14.964 0
M  V30 1021 H -31.299 -57.643 -16.224 0
M  V30 1022 N -30.228 -56.785 -8.152 0
M  V30 1023 C -29.973 -55.356 -8.054 0
M  V30 1024 C -31.209 -54.753 -7.411 0
M  V30 1025 O -32.334 -55.062 -7.804 0
M  V30 1026 C -29.844 -54.75 -9.431 0
M  V30 1027 C -28.933 -53.592 -9.81 0
M  V30 1028 C -29.559 -52.954 -11.037 0
M  V30 1029 C -28.695 -52.543 -8.72 0
M  V30 1030 H -30.318 -57.199 -9.058 0
M  V30 1031 H -29.07 -55.159 -7.457 0
M  V30 1032 H -29.544 -55.581 -10.086 0
M  V30 1033 H -30.859 -54.42 -9.698 0
M  V30 1034 H -27.951 -54.006 -10.081 0
M  V30 1035 H -30.575 -52.609 -10.793 0
M  V30 1036 H -28.948 -52.097 -11.357 0
M  V30 1037 H -29.608 -53.693 -11.85 0
M  V30 1038 H -28.242 -53.024 -7.841 0
M  V30 1039 H -28.018 -51.765 -9.102 0
M  V30 1040 H -29.654 -52.086 -8.435 0
M  V30 1041 N -30.992 -53.903 -6.418 0
M  V30 1042 C -32.079 -53.286 -5.683 0
M  V30 1043 C -31.789 -51.808 -5.624 0
M  V30 1044 O -30.653 -51.39 -5.364 0
M  V30 1045 C -32.161 -53.823 -4.239 0
M  V30 1046 C -33.316 -53.206 -3.537 0
M  V30 1047 C -32.321 -55.325 -4.228 0
M  V30 1048 H -30.05 -53.68 -6.168 0
M  V30 1049 H -33.032 -53.471 -6.2 0
M  V30 1050 H -31.234 -53.559 -3.71 0
M  V30 1051 H -34.244 -53.446 -4.076 0
M  V30 1052 H -33.375 -53.6 -2.512 0
M  V30 1053 H -33.184 -52.115 -3.503 0
M  V30 1054 H -31.464 -55.789 -4.737 0
M  V30 1055 H -32.366 -55.681 -3.188 0
M  V30 1056 H -33.25 -55.599 -4.75 0
M  V30 1057 N -32.81 -51.006 -5.874 0
M  V30 1058 C -32.629 -49.572 -5.756 0
M  V30 1059 C -33.744 -48.937 -4.942 0
M  V30 1060 O -34.909 -49.296 -5.081 0
M  V30 1061 C -32.544 -48.905 -7.14 0
M  V30 1062 C -31.445 -49.442 -8.057 0
M  V30 1063 C -31.21 -48.468 -9.205 0
M  V30 1064 C -30.428 -49.073 -10.349 0
M  V30 1065 N -29.795 -47.972 -11.148 0 CHG=1
M  V30 1066 H -33.696 -51.384 -6.141 0
M  V30 1067 H -31.679 -49.394 -5.231 0
M  V30 1068 H -33.51 -49.049 -7.647 0
M  V30 1069 H -32.366 -47.83 -6.989 0
M  V30 1070 H -30.515 -49.56 -7.482 0
M  V30 1071 H -31.752 -50.417 -8.463 0
M  V30 1072 H -32.187 -48.135 -9.586 0
M  V30 1073 H -30.652 -47.602 -8.82 0
M  V30 1074 H -29.646 -49.736 -9.951 0
M  V30 1075 H -31.106 -49.652 -10.993 0
M  V30 1076 H -29.182 -47.436 -10.554 0
M  V30 1077 H -29.264 -48.37 -11.907 0
M  V30 1078 H -30.514 -47.371 -11.52 0
M  V30 1079 N -33.368 -47.981 -4.11 0
M  V30 1080 C -34.307 -47.169 -3.379 0
M  V30 1081 C -35.014 -46.296 -4.411 0
M  V30 1082 O -34.388 -45.835 -5.363 0
M  V30 1083 C -33.532 -46.344 -2.28 0
M  V30 1084 C -34.436 -45.451 -1.472 0
M  V30 1085 C -32.764 -47.303 -1.341 0
M  V30 1086 H -32.39 -47.814 -3.983 0
M  V30 1087 H -35.049 -47.809 -2.879 0
M  V30 1088 H -32.8 -45.704 -2.795 0
M  V30 1089 H -35.2 -46.062 -0.968 0
M  V30 1090 H -33.842 -44.912 -0.719 0
M  V30 1091 H -34.927 -44.727 -2.139 0
M  V30 1092 H -32.05 -47.898 -1.929 0
M  V30 1093 H -32.219 -46.718 -0.585 0
M  V30 1094 H -33.477 -47.975 -0.841 0
M  V30 1095 N -36.322 -46.092 -4.265 0
M  V30 1096 C -37.076 -45.299 -5.251 0
M  V30 1097 C -38.17 -44.512 -4.519 0
M  V30 1098 O -38.149 -44.473 -3.289 0
M  V30 1099 C -37.682 -46.223 -6.334 0
M  V30 1100 H -36.798 -46.482 -3.477 0
M  V30 1101 H -36.392 -44.589 -5.739 0
M  V30 1102 H -38.241 -45.617 -7.062 0
M  V30 1103 H -36.874 -46.762 -6.85 0
M  V30 1104 H -38.362 -46.947 -5.86 0
M  V30 1105 N -39.087 -43.874 -5.259 0
M  V30 1106 C -40.251 -43.196 -4.686 0
M  V30 1107 C -39.801 -42.031 -3.81 0
M  V30 1108 O -40.004 -42.067 -2.572 0
M  V30 1109 C -41.072 -44.162 -3.815 0
M  V30 1110 C -42.584 -44.016 -4.021 0
M  V30 1111 O -43.342 -44.946 -3.586 0
M  V30 1112 O -43.01 -42.998 -4.613 0 CHG=-1
M  V30 1113 H -38.97 -43.86 -6.252 0
M  V30 1114 H -40.882 -42.817 -5.504 0
M  V30 1115 H -40.782 -45.193 -4.066 0
M  V30 1116 H -40.841 -43.963 -2.758 0
M  V30 1117 N -39.214 -41.014 -4.449 0
M  V30 1118 C -38.554 -39.914 -3.749 0
M  V30 1119 C -39.455 -38.735 -3.493 0
M  V30 1120 O -38.969 -37.646 -3.202 0
M  V30 1121 C -37.316 -39.432 -4.511 0
M  V30 1122 C -36.235 -40.468 -4.615 0
M  V30 1123 C -35.438 -40.761 -3.522 0
M  V30 1124 C -36.021 -41.138 -5.811 0
M  V30 1125 C -34.432 -41.718 -3.592 0
M  V30 1126 C -35.01 -42.092 -5.914 0
M  V30 1127 C -34.215 -42.388 -4.801 0
M  V30 1128 H -39.227 -41.006 -5.449 0
M  V30 1129 H -38.226 -40.301 -2.773 0
M  V30 1130 H -37.623 -39.146 -5.528 0
M  V30 1131 H -36.907 -38.553 -3.99 0
M  V30 1132 H -35.602 -40.232 -2.59 0
M  V30 1133 H -36.644 -40.918 -6.671 0
M  V30 1134 H -33.825 -41.942 -2.723 0
M  V30 1135 H -34.84 -42.604 -6.854 0
M  V30 1136 H -33.433 -43.135 -4.875 0
M  V30 1137 N -40.762 -38.952 -3.587 0
M  V30 1138 C -41.734 -37.88 -3.421 0
M  V30 1139 C -41.626 -37.148 -2.1 0
M  V30 1140 O -41.988 -35.966 -1.994 0
M  V30 1141 H -41.088 -39.878 -3.777 0
M  V30 1142 H -42.742 -38.313 -3.495 0
M  V30 1143 H -41.588 -37.152 -4.233 0
M  V30 1144 N -41.122 -37.856 -1.093 0
M  V30 1145 C -41.082 -37.351 0.275 0
M  V30 1146 C -39.667 -37.017 0.694 0
M  V30 1147 O -39.452 -36.597 1.82 0
M  V30 1148 C -41.692 -38.367 1.237 0
M  V30 1149 C -43.212 -38.577 1.22 0
M  V30 1150 C -43.609 -39.701 2.167 0
M  V30 1151 C -43.972 -37.305 1.583 0
M  V30 1152 H -40.757 -38.768 -1.281 0
M  V30 1153 H -41.681 -36.429 0.319 0
M  V30 1154 H -41.228 -39.34 1.017 0
M  V30 1155 H -41.42 -38.053 2.255 0
M  V30 1156 H -43.501 -38.867 0.199 0
M  V30 1157 H -43.287 -39.451 3.189 0
M  V30 1158 H -44.701 -39.828 2.148 0
M  V30 1159 H -43.125 -40.636 1.849 0
M  V30 1160 H -43.72 -36.51 0.866 0
M  V30 1161 H -45.054 -37.501 1.547 0
M  V30 1162 H -43.69 -36.987 2.597 0
M  V30 1163 N -38.711 -37.189 -0.212 0
M  V30 1164 C -37.33 -36.904 0.087 0
M  V30 1165 C -37.095 -35.418 0.161 0
M  V30 1166 O -37.764 -34.637 -0.557 0
M  V30 1167 C -36.44 -37.512 -0.966 0
M  V30 1168 O -36.656 -38.907 -0.964 0
M  V30 1169 H -38.955 -37.524 -1.122 0
M  V30 1170 H -37.082 -37.349 1.062 0
M  V30 1171 H -36.691 -37.096 -1.953 0
M  V30 1172 H -35.386 -37.297 -0.735 0
M  V30 1173 H -36.104 -39.314 -1.622 0
M  V30 1174 N -37.108 -52.204 7.272 0
M  V30 1175 C -36.777 -52.746 5.959 0
M  V30 1176 C -35.912 -54.022 6.03 0
M  V30 1177 O -36.185 -54.989 5.311 0
M  V30 1178 C -36.142 -51.682 5.044 0
M  V30 1179 C -35.59 -52.176 3.688 0
M  V30 1180 C -36.645 -52.886 2.852 0
M  V30 1181 C -35.079 -50.979 2.931 0
M  V30 1182 H -36.864 -51.257 7.482 0
M  V30 1183 H -37.729 -53.039 5.493 0
M  V30 1184 H -36.908 -50.921 4.835 0
M  V30 1185 H -35.309 -51.222 5.596 0
M  V30 1186 H -34.761 -52.875 3.874 0
M  V30 1187 H -37.481 -52.199 2.656 0
M  V30 1188 H -36.202 -53.206 1.897 0
M  V30 1189 H -37.014 -53.766 3.398 0
M  V30 1190 H -34.289 -50.485 3.516 0
M  V30 1191 H -34.67 -51.304 1.963 0
M  V30 1192 H -35.905 -50.273 2.761 0
M  V30 1193 H -47.0064 -50.7627 -22.276 0
M  V30 1194 H -50.158 -47.0166 -13.7748 0
M  V30 1195 H -41.3974 -46.4284 -23.7656 0
M  V30 1196 H -34.141 -47.4285 -26.134 0
M  V30 1197 H -52.3658 -37.0132 -13.2659 0
M  V30 1198 H -45.5311 -33.0218 -6.56723 0
M  V30 1199 H -44.3339 -32.7744 -8.59095 0
M  V30 1200 H -40.7063 -33.6488 -6.91437 0
M  V30 1201 H -43.3827 -37.875 -7.32853 0
M  V30 1202 H -37.9362 -32.7862 -8.85524 0
M  V30 1203 H -34.539 -34.6594 -7.7327 0
M  V30 1204 H -33.3573 -34.8842 -9.58995 0
M  V30 1205 H -26.8647 -47.8209 -7.02731 0
M  V30 1206 H -37.8827 -35.3069 -17.594 0
M  V30 1207 H -45.9077 -35.5807 -17.4849 0
M  V30 1208 H -32.1842 -45.6481 -11.5008 0
M  V30 1209 H -46.0582 -58.9549 -3.40253 0
M  V30 1210 H -37.8603 -67.4566 -5.29327 0
M  V30 1211 H -28.8907 -51.1104 -1.40314 0
M  V30 1212 H -28.2023 -49.586 1.72969 0
M  V30 1213 H -35.5055 -38.7799 3.59212 0
M  V30 1214 H -37.6232 -40.5315 3.72764 0
M  V30 1215 H -39.5618 -42.6681 4.55302 0
M  V30 1216 H -42.651 -44.7615 3.27474 0
M  V30 1217 H -43.1929 -46.611 -1.04417 0
M  V30 1218 H -30.5851 -59.5389 -11.4071 0
M  V30 1219 H -32.5477 -60.1771 -14.9975 0
M  V30 1220 H -29.4575 -57.2595 -7.6813 0
M  V30 1221 H -36.3814 -35.0414 0.804406 0
M  V30 1222 H -36.6437 -52.7925 7.96376 0
M  V30 1223 H -35.1083 -54.0675 6.67578 0
M  V30 END ATOM
M  V30 BEGIN BOND
M  V30 1 1 1111 1
M  V30 2 1 1 947
M  V30 3 1 2 12
M  V30 4 1 2 3
M  V30 5 1 2 1193
M  V30 6 1 13 3
M  V30 7 1 3 6
M  V30 8 1 3 4
M  V30 9 2 4 5
M  V30 10 1 4 19
M  V30 11 1 7 6
M  V30 12 1 6 15
M  V30 13 1 6 14
M  V30 14 1 9 7
M  V30 15 2 8 7
M  V30 16 1 11 8
M  V30 17 1 8 17
M  V30 18 1 10 9
M  V30 19 1 16 9
M  V30 20 1 18 10
M  V30 21 2 10 11
M  V30 22 1 28 19
M  V30 23 1 19 20
M  V30 24 1 20 29
M  V30 25 1 20 23
M  V30 26 1 20 21
M  V30 27 2 22 21
M  V30 28 1 21 41
M  V30 29 1 24 23
M  V30 30 1 23 30
M  V30 31 1 23 31
M  V30 32 1 33 24
M  V30 33 1 32 24
M  V30 34 1 24 25
M  V30 35 1 26 25
M  V30 36 1 25 34
M  V30 37 1 25 35
M  V30 38 1 37 26
M  V30 39 1 27 26
M  V30 40 1 26 36
M  V30 41 1 39 27
M  V30 42 1 40 27
M  V30 43 1 27 38
M  V30 44 1 41 49
M  V30 45 1 41 42
M  V30 46 1 50 42
M  V30 47 1 42 45
M  V30 48 1 42 43
M  V30 49 1 43 60
M  V30 50 2 43 44
M  V30 51 1 46 45
M  V30 52 1 45 51
M  V30 53 1 45 52
M  V30 54 1 53 46
M  V30 55 1 48 46
M  V30 56 1 46 47
M  V30 57 1 55 47
M  V30 58 1 47 56
M  V30 59 1 47 54
M  V30 60 1 58 48
M  V30 61 1 57 48
M  V30 62 1 48 59
M  V30 63 1 64 60
M  V30 64 1 60 61
M  V30 65 1 66 61
M  V30 66 1 61 65
M  V30 67 1 61 62
M  V30 68 2 63 62
M  V30 69 1 62 67
M  V30 70 1 67 71
M  V30 71 1 67 68
M  V30 72 1 72 68
M  V30 73 1 68 69
M  V30 74 1 68 73
M  V30 75 1 74 69
M  V30 76 2 69 70
M  V30 77 1 78 74
M  V30 78 1 74 75
M  V30 79 1 79 75
M  V30 80 1 75 80
M  V30 81 1 75 76
M  V30 82 1 76 81
M  V30 83 2 76 77
M  V30 84 1 90 81
M  V30 85 1 81 82
M  V30 86 1 83 82
M  V30 87 1 82 91
M  V30 88 1 82 85
M  V30 89 1 98 83
M  V30 90 2 83 84
M  V30 91 1 93 85
M  V30 92 1 85 92
M  V30 93 1 85 86
M  V30 94 1 94 86
M  V30 95 1 86 95
M  V30 96 1 86 87
M  V30 97 1 88 87
M  V30 98 2 87 89
M  V30 99 1 96 88
M  V30 100 1 88 97
M  V30 101 1 99 98
M  V30 102 1 110 98
M  V30 103 1 100 99
M  V30 104 1 102 99
M  V30 105 1 99 111
M  V30 106 2 101 100
M  V30 107 1 119 100
M  V30 108 1 113 102
M  V30 109 1 112 102
M  V30 110 1 102 103
M  V30 111 2 103 105
M  V30 112 1 103 104
M  V30 113 1 114 104
M  V30 114 2 104 106
M  V30 115 1 115 105
M  V30 116 1 105 107
M  V30 117 1 106 108
M  V30 118 1 106 116
M  V30 119 1 107 117
M  V30 120 2 107 108
M  V30 121 1 108 109
M  V30 122 1 109 118
M  V30 123 1 120 119
M  V30 124 1 119 123
M  V30 125 1 124 120
M  V30 126 1 121 120
M  V30 127 1 125 120
M  V30 128 1 126 121
M  V30 129 2 121 122
M  V30 130 1 135 126
M  V30 131 1 127 126
M  V30 132 1 130 127
M  V30 133 1 128 127
M  V30 134 1 127 136
M  V30 135 2 129 128
M  V30 136 1 128 141
M  V30 137 1 138 130
M  V30 138 1 131 130
M  V30 139 1 130 137
M  V30 140 1 139 131
M  V30 141 1 140 131
M  V30 142 1 131 132
M  V30 143 2 134 132
M  V30 144 1 132 133
M  V30 145 1 133 1194
M  V30 146 1 142 141
M  V30 147 1 141 148
M  V30 148 1 143 142
M  V30 149 1 149 142
M  V30 150 1 142 145
M  V30 151 1 157 143
M  V30 152 2 143 144
M  V30 153 1 146 145
M  V30 154 1 145 150
M  V30 155 1 145 147
M  V30 156 1 153 146
M  V30 157 1 151 146
M  V30 158 1 146 152
M  V30 159 1 156 147
M  V30 160 1 147 154
M  V30 161 1 147 155
M  V30 162 1 158 157
M  V30 163 1 157 169
M  V30 164 1 161 158
M  V30 165 1 159 158
M  V30 166 1 158 170
M  V30 167 1 178 159
M  V30 168 2 159 160
M  V30 169 1 171 161
M  V30 170 1 162 161
M  V30 171 1 161 172
M  V30 172 2 164 162
M  V30 173 1 162 163
M  V30 174 2 165 163
M  V30 175 1 163 173
M  V30 176 1 174 164
M  V30 177 1 166 164
M  V30 178 1 167 165
M  V30 179 1 165 175
M  V30 180 1 176 166
M  V30 181 2 166 167
M  V30 182 1 168 167
M  V30 183 1 168 177
M  V30 184 1 179 178
M  V30 185 1 178 187
M  V30 186 1 180 179
M  V30 187 1 182 179
M  V30 188 1 179 188
M  V30 189 2 181 180
M  V30 190 1 193 180
M  V30 191 1 190 182
M  V30 192 1 183 182
M  V30 193 1 182 189
M  V30 194 1 191 183
M  V30 195 1 184 183
M  V30 196 1 183 192
M  V30 197 2 185 184
M  V30 198 1 184 186
M  V30 199 1 194 193
M  V30 200 1 193 197
M  V30 201 1 199 194
M  V30 202 1 195 194
M  V30 203 1 194 198
M  V30 204 2 195 196
M  V30 205 1 195 1195
M  V30 206 1 208 200
M  V30 207 1 200 201
M  V30 208 1 200 1196
M  V30 209 1 201 209
M  V30 210 1 201 202
M  V30 211 1 201 204
M  V30 212 2 203 202
M  V30 213 1 202 219
M  V30 214 1 210 204
M  V30 215 1 211 204
M  V30 216 1 204 205
M  V30 217 1 205 206
M  V30 218 1 205 207
M  V30 219 1 205 212
M  V30 220 1 213 206
M  V30 221 1 215 206
M  V30 222 1 206 214
M  V30 223 1 218 207
M  V30 224 1 216 207
M  V30 225 1 207 217
M  V30 226 1 226 219
M  V30 227 1 219 220
M  V30 228 1 227 220
M  V30 229 1 220 223
M  V30 230 1 220 221
M  V30 231 1 221 233
M  V30 232 2 221 222
M  V30 233 1 225 223
M  V30 234 1 223 228
M  V30 235 1 223 224
M  V30 236 1 231 224
M  V30 237 1 230 224
M  V30 238 1 224 232
M  V30 239 1 225 229
M  V30 240 1 240 233
M  V30 241 1 233 234
M  V30 242 1 237 234
M  V30 243 1 234 241
M  V30 244 1 234 235
M  V30 245 2 236 235
M  V30 246 1 235 249
M  V30 247 1 239 237
M  V30 248 1 238 237
M  V30 249 1 237 242
M  V30 250 1 243 238
M  V30 251 1 244 238
M  V30 252 1 238 245
M  V30 253 1 248 239
M  V30 254 1 247 239
M  V30 255 1 239 246
M  V30 256 1 249 254
M  V30 257 1 249 250
M  V30 258 1 255 250
M  V30 259 1 251 250
M  V30 260 1 250 253
M  V30 261 1 259 251
M  V30 262 2 251 252
M  V30 263 1 253 257
M  V30 264 1 253 258
M  V30 265 1 253 256
M  V30 266 1 260 259
M  V30 267 1 266 259
M  V30 268 1 263 260
M  V30 269 1 260 267
M  V30 270 1 260 261
M  V30 271 2 262 261
M  V30 272 1 261 275
M  V30 273 1 265 263
M  V30 274 1 268 263
M  V30 275 1 264 263
M  V30 276 1 270 264
M  V30 277 1 264 269
M  V30 278 1 264 271
M  V30 279 1 273 265
M  V30 280 1 265 272
M  V30 281 1 265 274
M  V30 282 1 275 284
M  V30 283 1 275 276
M  V30 284 1 277 276
M  V30 285 1 276 285
M  V30 286 1 276 279
M  V30 287 2 278 277
M  V30 288 1 297 277
M  V30 289 1 286 279
M  V30 290 1 279 280
M  V30 291 1 279 287
M  V30 292 1 289 280
M  V30 293 1 280 288
M  V30 294 1 280 281
M  V30 295 1 281 291
M  V30 296 1 281 290
M  V30 297 1 281 282
M  V30 298 1 292 282
M  V30 299 1 293 282
M  V30 300 1 282 283
M  V30 301 1 283 294
M  V30 302 1 283 296
M  V30 303 1 283 295
M  V30 304 1 298 297
M  V30 305 1 297 304
M  V30 306 1 301 298
M  V30 307 1 305 298
M  V30 308 1 298 299
M  V30 309 1 311 299
M  V30 310 2 299 300
M  V30 311 1 302 301
M  V30 312 1 306 301
M  V30 313 1 301 303
M  V30 314 1 310 302
M  V30 315 1 309 302
M  V30 316 1 302 308
M  V30 317 1 307 303
M  V30 318 1 319 311
M  V30 319 1 311 312
M  V30 320 1 313 312
M  V30 321 1 312 315
M  V30 322 1 312 320
M  V30 323 2 314 313
M  V30 324 1 313 1197
M  V30 325 1 322 315
M  V30 326 1 315 321
M  V30 327 1 315 316
M  V30 328 1 323 316
M  V30 329 1 316 318
M  V30 330 1 316 317
M  V30 331 1 326 317
M  V30 332 1 317 324
M  V30 333 1 317 325
M  V30 334 1 327 318
M  V30 335 1 318 329
M  V30 336 1 318 328
M  V30 337 1 331 330
M  V30 338 1 330 341
M  V30 339 1 330 1198
M  V30 340 1 334 331
M  V30 341 1 332 331
M  V30 342 1 331 342
M  V30 343 2 333 332
M  V30 344 1 332 1199
M  V30 345 1 335 334
M  V30 346 1 344 334
M  V30 347 1 334 343
M  V30 348 2 337 335
M  V30 349 1 335 336
M  V30 350 2 338 336
M  V30 351 1 336 345
M  V30 352 1 339 337
M  V30 353 1 346 337
M  V30 354 1 340 338
M  V30 355 1 338 347
M  V30 356 1 348 339
M  V30 357 2 339 340
M  V30 358 1 349 340
M  V30 359 1 351 350
M  V30 360 1 359 350
M  V30 361 1 350 1200
M  V30 362 1 352 351
M  V30 363 1 354 351
M  V30 364 1 351 360
M  V30 365 1 365 352
M  V30 366 2 352 353
M  V30 367 1 362 354
M  V30 368 1 355 354
M  V30 369 1 354 361
M  V30 370 1 363 355
M  V30 371 1 356 355
M  V30 372 1 355 364
M  V30 373 2 358 356
M  V30 374 1 356 357
M  V30 375 1 357 1201
M  V30 376 1 366 365
M  V30 377 1 365 370
M  V30 378 1 369 366
M  V30 379 1 371 366
M  V30 380 1 366 367
M  V30 381 2 368 367
M  V30 382 1 367 1202
M  V30 383 1 372 369
M  V30 384 1 373 369
M  V30 385 1 369 374
M  V30 386 1 376 375
M  V30 387 1 383 375
M  V30 388 1 375 1203
M  V30 389 1 377 376
M  V30 390 1 379 376
M  V30 391 1 376 384
M  V30 392 2 378 377
M  V30 393 1 377 1204
M  V30 394 1 386 379
M  V30 395 1 385 379
M  V30 396 1 379 380
M  V30 397 1 381 380
M  V30 398 1 380 388
M  V30 399 1 380 387
M  V30 400 1 382 381
M  V30 401 1 391 382
M  V30 402 1 390 382
M  V30 403 1 382 389
M  V30 404 1 392 400
M  V30 405 1 392 393
M  V30 406 1 392 1205
M  V30 407 1 401 393
M  V30 408 1 393 394
M  V30 409 1 393 396
M  V30 410 1 406 394
M  V30 411 2 394 395
M  V30 412 1 397 396
M  V30 413 1 396 403
M  V30 414 1 396 402
M  V30 415 1 398 397
M  V30 416 2 397 399
M  V30 417 1 405 398
M  V30 418 1 404 398
M  V30 419 1 414 406
M  V30 420 1 406 407
M  V30 421 1 408 407
M  V30 422 1 407 410
M  V30 423 1 407 415
M  V30 424 2 409 408
M  V30 425 1 425 408
M  V30 426 1 416 410
M  V30 427 1 417 410
M  V30 428 1 410 411
M  V30 429 1 411 412
M  V30 430 1 411 418
M  V30 431 1 411 413
M  V30 432 1 421 412
M  V30 433 1 419 412
M  V30 434 1 412 420
M  V30 435 1 424 413
M  V30 436 1 422 413
M  V30 437 1 413 423
M  V30 438 1 426 425
M  V30 439 1 425 432
M  V30 440 1 427 426
M  V30 441 1 433 426
M  V30 442 1 426 429
M  V30 443 1 441 427
M  V30 444 2 427 428
M  V30 445 1 431 429
M  V30 446 1 429 430
M  V30 447 1 429 434
M  V30 448 1 435 430
M  V30 449 1 436 430
M  V30 450 1 430 437
M  V30 451 1 440 431
M  V30 452 1 438 431
M  V30 453 1 431 439
M  V30 454 1 442 441
M  V30 455 1 450 441
M  V30 456 1 445 442
M  V30 457 1 443 442
M  V30 458 1 442 451
M  V30 459 2 444 443
M  V30 460 1 443 458
M  V30 461 1 446 445
M  V30 462 1 453 445
M  V30 463 1 445 452
M  V30 464 1 454 446
M  V30 465 1 455 446
M  V30 466 1 446 447
M  V30 467 1 448 447
M  V30 468 2 447 449
M  V30 469 1 456 448
M  V30 470 1 448 457
M  V30 471 1 459 458
M  V30 472 1 458 466
M  V30 473 1 460 459
M  V30 474 1 467 459
M  V30 475 1 459 462
M  V30 476 1 477 460
M  V30 477 2 461 460
M  V30 478 1 463 462
M  V30 479 1 462 469
M  V30 480 1 462 468
M  V30 481 1 470 463
M  V30 482 1 463 464
M  V30 483 1 463 465
M  V30 484 1 472 464
M  V30 485 1 473 464
M  V30 486 1 464 471
M  V30 487 1 475 465
M  V30 488 1 474 465
M  V30 489 1 465 476
M  V30 490 1 478 477
M  V30 491 1 477 485
M  V30 492 1 481 478
M  V30 493 1 479 478
M  V30 494 1 478 486
M  V30 495 2 480 479
M  V30 496 1 479 496
M  V30 497 1 488 481
M  V30 498 1 481 487
M  V30 499 1 481 482
M  V30 500 1 483 482
M  V30 501 1 484 482
M  V30 502 1 482 489
M  V30 503 1 490 483
M  V30 504 1 483 492
M  V30 505 1 483 491
M  V30 506 1 495 484
M  V30 507 1 484 494
M  V30 508 1 484 493
M  V30 509 1 497 496
M  V30 510 1 496 500
M  V30 511 1 501 497
M  V30 512 1 497 502
M  V30 513 1 497 498
M  V30 514 2 498 499
M  V30 515 1 498 1206
M  V30 516 1 515 503
M  V30 517 1 504 503
M  V30 518 1 503 1207
M  V30 519 1 507 504
M  V30 520 1 504 516
M  V30 521 1 504 505
M  V30 522 2 506 505
M  V30 523 1 505 524
M  V30 524 1 508 507
M  V30 525 1 518 507
M  V30 526 1 507 517
M  V30 527 2 509 508
M  V30 528 1 508 510
M  V30 529 1 511 509
M  V30 530 1 519 509
M  V30 531 2 512 510
M  V30 532 1 510 520
M  V30 533 1 521 511
M  V30 534 2 511 513
M  V30 535 1 513 512
M  V30 536 1 512 522
M  V30 537 1 514 513
M  V30 538 1 523 514
M  V30 539 1 524 532
M  V30 540 1 524 525
M  V30 541 1 526 525
M  V30 542 1 533 525
M  V30 543 1 525 528
M  V30 544 1 543 526
M  V30 545 2 526 527
M  V30 546 1 528 534
M  V30 547 1 528 530
M  V30 548 1 528 529
M  V30 549 1 536 529
M  V30 550 1 535 529
M  V30 551 1 529 531
M  V30 552 1 539 530
M  V30 553 1 537 530
M  V30 554 1 530 538
M  V30 555 1 531 542
M  V30 556 1 531 541
M  V30 557 1 531 540
M  V30 558 1 544 543
M  V30 559 1 551 543
M  V30 560 1 547 544
M  V30 561 1 552 544
M  V30 562 1 544 545
M  V30 563 1 545 562
M  V30 564 2 545 546
M  V30 565 1 548 547
M  V30 566 1 549 547
M  V30 567 1 547 553
M  V30 568 1 554 548
M  V30 569 1 550 548
M  V30 570 1 548 555
M  V30 571 1 557 549
M  V30 572 1 549 556
M  V30 573 1 549 558
M  V30 574 1 559 550
M  V30 575 1 560 550
M  V30 576 1 550 561
M  V30 577 1 570 562
M  V30 578 1 562 563
M  V30 579 1 564 563
M  V30 580 1 563 571
M  V30 581 1 563 566
M  V30 582 2 565 564
M  V30 583 1 564 581
M  V30 584 1 572 566
M  V30 585 1 566 567
M  V30 586 1 566 568
M  V30 587 1 574 567
M  V30 588 1 573 567
M  V30 589 1 567 569
M  V30 590 1 577 568
M  V30 591 1 568 575
M  V30 592 1 568 576
M  V30 593 1 569 580
M  V30 594 1 569 579
M  V30 595 1 569 578
M  V30 596 1 582 581
M  V30 597 1 581 590
M  V30 598 1 591 582
M  V30 599 1 582 583
M  V30 600 1 582 585
M  V30 601 1 596 583
M  V30 602 2 583 584
M  V30 603 1 592 585
M  V30 604 1 593 585
M  V30 605 1 585 586
M  V30 606 1 586 595
M  V30 607 1 586 594
M  V30 608 1 586 587
M  V30 609 2 589 587
M  V30 610 1 587 588
M  V30 611 1 588 1208
M  V30 612 1 607 596
M  V30 613 1 596 597
M  V30 614 1 600 597
M  V30 615 1 597 608
M  V30 616 1 597 598
M  V30 617 2 599 598
M  V30 618 1 598 616
M  V30 619 1 609 600
M  V30 620 1 610 600
M  V30 621 1 600 601
M  V30 622 2 603 601
M  V30 623 1 601 602
M  V30 624 2 602 604
M  V30 625 1 602 611
M  V30 626 1 612 603
M  V30 627 1 603 605
M  V30 628 1 606 604
M  V30 629 1 604 613
M  V30 630 1 614 605
M  V30 631 2 605 606
M  V30 632 1 606 615
M  V30 633 1 616 624
M  V30 634 1 616 617
M  V30 635 1 625 617
M  V30 636 1 618 617
M  V30 637 1 617 620
M  V30 638 1 633 618
M  V30 639 2 618 619
M  V30 640 1 620 621
M  V30 641 1 620 626
M  V30 642 1 620 627
M  V30 643 1 628 621
M  V30 644 1 622 621
M  V30 645 1 621 629
M  V30 646 1 622 623
M  V30 647 1 630 623
M  V30 648 1 631 623
M  V30 649 1 623 632
M  V30 650 1 634 633
M  V30 651 1 633 640
M  V30 652 1 637 634
M  V30 653 1 641 634
M  V30 654 1 634 635
M  V30 655 2 636 635
M  V30 656 1 635 647
M  V30 657 1 638 637
M  V30 658 1 642 637
M  V30 659 1 637 639
M  V30 660 1 646 638
M  V30 661 1 645 638
M  V30 662 1 638 644
M  V30 663 1 643 639
M  V30 664 1 647 659
M  V30 665 1 647 648
M  V30 666 1 660 648
M  V30 667 1 648 651
M  V30 668 1 648 649
M  V30 669 1 668 649
M  V30 670 2 649 650
M  V30 671 1 652 651
M  V30 672 1 651 662
M  V30 673 1 651 661
M  V30 674 2 653 652
M  V30 675 1 654 652
M  V30 676 1 655 653
M  V30 677 1 653 663
M  V30 678 2 656 654
M  V30 679 1 654 664
M  V30 680 1 665 655
M  V30 681 2 657 655
M  V30 682 1 657 656
M  V30 683 1 666 656
M  V30 684 1 658 657
M  V30 685 1 667 658
M  V30 686 1 672 668
M  V30 687 1 668 669
M  V30 688 1 674 669
M  V30 689 1 673 669
M  V30 690 1 669 670
M  V30 691 2 670 671
M  V30 692 1 670 675
M  V30 693 1 683 675
M  V30 694 1 675 676
M  V30 695 1 684 676
M  V30 696 1 676 679
M  V30 697 1 676 677
M  V30 698 2 678 677
M  V30 699 1 677 689
M  V30 700 1 686 679
M  V30 701 1 679 680
M  V30 702 1 679 685
M  V30 703 1 681 680
M  V30 704 2 680 682
M  V30 705 1 687 681
M  V30 706 1 681 688
M  V30 707 1 689 697
M  V30 708 1 689 690
M  V30 709 1 698 690
M  V30 710 1 690 693
M  V30 711 1 690 691
M  V30 712 2 691 692
M  V30 713 1 691 708
M  V30 714 1 699 693
M  V30 715 1 693 700
M  V30 716 1 693 694
M  V30 717 1 695 694
M  V30 718 1 694 701
M  V30 719 1 694 696
M  V30 720 1 702 695
M  V30 721 1 704 695
M  V30 722 1 695 703
M  V30 723 1 707 696
M  V30 724 1 696 706
M  V30 725 1 696 705
M  V30 726 1 716 708
M  V30 727 1 708 709
M  V30 728 1 710 709
M  V30 729 1 709 712
M  V30 730 1 709 717
M  V30 731 1 727 710
M  V30 732 2 710 711
M  V30 733 1 719 712
M  V30 734 1 712 718
M  V30 735 1 712 713
M  V30 736 1 720 713
M  V30 737 1 713 715
M  V30 738 1 713 714
M  V30 739 1 723 714
M  V30 740 1 714 721
M  V30 741 1 714 722
M  V30 742 1 724 715
M  V30 743 1 715 726
M  V30 744 1 715 725
M  V30 745 1 728 727
M  V30 746 1 735 727
M  V30 747 1 731 728
M  V30 748 1 729 728
M  V30 749 1 728 736
M  V30 750 1 739 729
M  V30 751 2 730 729
M  V30 752 1 738 731
M  V30 753 1 737 731
M  V30 754 1 731 732
M  V30 755 2 734 732
M  V30 756 1 732 733
M  V30 757 1 733 1209
M  V30 758 1 740 739
M  V30 759 1 739 751
M  V30 760 1 752 740
M  V30 761 1 743 740
M  V30 762 1 740 741
M  V30 763 2 742 741
M  V30 764 1 741 760
M  V30 765 1 754 743
M  V30 766 1 744 743
M  V30 767 1 743 753
M  V30 768 2 745 744
M  V30 769 1 744 746
M  V30 770 1 755 745
M  V30 771 1 747 745
M  V30 772 2 748 746
M  V30 773 1 746 756
M  V30 774 1 757 747
M  V30 775 2 747 749
M  V30 776 1 749 748
M  V30 777 1 748 758
M  V30 778 1 750 749
M  V30 779 1 759 750
M  V30 780 1 760 768
M  V30 781 1 760 761
M  V30 782 1 769 761
M  V30 783 1 761 762
M  V30 784 1 761 764
M  V30 785 1 779 762
M  V30 786 2 762 763
M  V30 787 1 765 764
M  V30 788 1 764 770
M  V30 789 1 764 771
M  V30 790 1 772 765
M  V30 791 1 765 767
M  V30 792 1 765 766
M  V30 793 1 775 766
M  V30 794 1 774 766
M  V30 795 1 766 773
M  V30 796 1 776 767
M  V30 797 1 777 767
M  V30 798 1 767 778
M  V30 799 1 790 779
M  V30 800 1 779 780
M  V30 801 1 781 780
M  V30 802 1 780 783
M  V30 803 1 780 791
M  V30 804 1 803 781
M  V30 805 2 781 782
M  V30 806 1 792 783
M  V30 807 1 783 793
M  V30 808 1 783 784
M  V30 809 1 795 784
M  V30 810 1 784 785
M  V30 811 1 784 794
M  V30 812 1 796 785
M  V30 813 1 797 785
M  V30 814 1 785 786
M  V30 815 1 786 787
M  V30 816 1 786 798
M  V30 817 2 788 787
M  V30 818 1 787 789
M  V30 819 1 799 788
M  V30 820 1 788 800
M  V30 821 1 789 802
M  V30 822 1 789 801
M  V30 823 1 804 803
M  V30 824 1 812 803
M  V30 825 1 807 804
M  V30 826 1 805 804
M  V30 827 1 804 813
M  V30 828 2 806 805
M  V30 829 1 805 818
M  V30 830 1 815 807
M  V30 831 1 814 807
M  V30 832 1 807 808
M  V30 833 1 809 808
M  V30 834 1 816 808
M  V30 835 1 808 817
M  V30 836 2 810 809
M  V30 837 1 809 811
M  V30 838 1 819 818
M  V30 839 1 818 824
M  V30 840 1 825 819
M  V30 841 1 819 820
M  V30 842 1 819 822
M  V30 843 2 820 821
M  V30 844 1 820 1210
M  V30 845 1 826 822
M  V30 846 1 827 822
M  V30 847 1 822 823
M  V30 848 1 823 828
M  V30 849 1 829 837
M  V30 850 1 829 830
M  V30 851 1 829 1211
M  V30 852 1 838 830
M  V30 853 1 830 833
M  V30 854 1 830 831
M  V30 855 2 832 831
M  V30 856 1 831 1212
M  V30 857 1 834 833
M  V30 858 1 833 835
M  V30 859 1 833 839
M  V30 860 1 841 834
M  V30 861 1 840 834
M  V30 862 1 834 836
M  V30 863 1 842 835
M  V30 864 1 835 843
M  V30 865 1 835 844
M  V30 866 1 846 836
M  V30 867 1 836 847
M  V30 868 1 836 845
M  V30 869 1 849 848
M  V30 870 1 848 858
M  V30 871 1 848 1213
M  V30 872 1 859 849
M  V30 873 1 852 849
M  V30 874 1 849 850
M  V30 875 2 851 850
M  V30 876 1 850 1214
M  V30 877 1 853 852
M  V30 878 1 860 852
M  V30 879 1 852 861
M  V30 880 2 854 853
M  V30 881 1 853 855
M  V30 882 1 863 854
M  V30 883 1 857 854
M  V30 884 1 856 855
M  V30 885 1 855 862
M  V30 886 2 857 856
M  V30 887 1 864 856
M  V30 888 1 866 865
M  V30 889 1 873 865
M  V30 890 1 865 1215
M  V30 891 1 869 866
M  V30 892 1 867 866
M  V30 893 1 866 874
M  V30 894 2 868 867
M  V30 895 1 867 877
M  V30 896 1 876 869
M  V30 897 1 870 869
M  V30 898 1 869 875
M  V30 899 2 872 870
M  V30 900 1 870 871
M  V30 901 1 871 1216
M  V30 902 1 878 877
M  V30 903 1 877 885
M  V30 904 1 886 878
M  V30 905 1 878 879
M  V30 906 1 878 881
M  V30 907 1 896 879
M  V30 908 2 879 880
M  V30 909 1 882 881
M  V30 910 1 887 881
M  V30 911 1 881 888
M  V30 912 1 883 882
M  V30 913 1 882 889
M  V30 914 1 882 884
M  V30 915 1 892 883
M  V30 916 1 891 883
M  V30 917 1 890 883
M  V30 918 1 894 884
M  V30 919 1 895 884
M  V30 920 1 884 893
M  V30 921 1 901 896
M  V30 922 1 896 897
M  V30 923 1 898 897
M  V30 924 1 897 900
M  V30 925 1 897 902
M  V30 926 2 899 898
M  V30 927 1 898 906
M  V30 928 1 905 900
M  V30 929 1 900 903
M  V30 930 1 900 904
M  V30 931 1 907 906
M  V30 932 1 906 911
M  V30 933 1 908 907
M  V30 934 1 912 907
M  V30 935 1 907 910
M  V30 936 2 909 908
M  V30 937 1 908 916
M  V30 938 1 913 910
M  V30 939 1 910 915
M  V30 940 1 910 914
M  V30 941 1 917 916
M  V30 942 1 916 927
M  V30 943 1 918 917
M  V30 944 1 928 917
M  V30 945 1 917 920
M  V30 946 2 919 918
M  V30 947 1 918 940
M  V30 948 1 929 920
M  V30 949 1 920 930
M  V30 950 1 920 921
M  V30 951 1 932 921
M  V30 952 1 921 922
M  V30 953 1 921 931
M  V30 954 1 933 922
M  V30 955 1 922 934
M  V30 956 1 922 923
M  V30 957 1 935 923
M  V30 958 1 923 924
M  V30 959 2 924 925
M  V30 960 1 924 926
M  V30 961 1 936 925
M  V30 962 1 925 937
M  V30 963 1 938 926
M  V30 964 1 926 939
M  V30 965 1 941 940
M  V30 966 1 940 948
M  V30 967 1 949 941
M  V30 968 1 942 941
M  V30 969 1 941 944
M  V30 970 2 943 942
M  V30 971 1 942 954
M  V30 972 1 951 944
M  V30 973 1 944 945
M  V30 974 1 944 950
M  V30 975 1 947 945
M  V30 976 1 945 946
M  V30 977 1 945 1217
M  V30 978 1 946 953
M  V30 979 1 946 952
M  V30 980 1 955 954
M  V30 981 1 954 960
M  V30 982 1 956 955
M  V30 983 1 961 955
M  V30 984 1 955 958
M  V30 985 1 965 956
M  V30 986 2 957 956
M  V30 987 1 963 958
M  V30 988 1 958 962
M  V30 989 1 958 959
M  V30 990 1 959 964
M  V30 991 1 966 965
M  V30 992 1 965 973
M  V30 993 1 969 966
M  V30 994 1 967 966
M  V30 995 1 974 966
M  V30 996 1 984 967
M  V30 997 2 967 968
M  V30 998 1 970 969
M  V30 999 1 976 969
M  V30 1000 1 969 975
M  V30 1001 1 977 970
M  V30 1002 1 972 970
M  V30 1003 1 970 971
M  V30 1004 1 979 971
M  V30 1005 1 980 971
M  V30 1006 1 971 978
M  V30 1007 1 982 972
M  V30 1008 1 981 972
M  V30 1009 1 972 983
M  V30 1010 1 991 984
M  V30 1011 1 985 984
M  V30 1012 1 986 985
M  V30 1013 1 985 992
M  V30 1014 1 985 988
M  V30 1015 2 987 986
M  V30 1016 1 1000 986
M  V30 1017 1 993 988
M  V30 1018 1 989 988
M  V30 1019 1 988 990
M  V30 1020 1 996 989
M  V30 1021 1 989 994
M  V30 1022 1 989 995
M  V30 1023 1 990 997
M  V30 1024 1 990 998
M  V30 1025 1 990 999
M  V30 1026 1 1001 1000
M  V30 1027 1 1000 1004
M  V30 1028 1 1006 1001
M  V30 1029 1 1005 1001
M  V30 1030 1 1002 1001
M  V30 1031 1 1007 1002
M  V30 1032 2 1002 1003
M  V30 1033 1 1016 1007
M  V30 1034 1 1008 1007
M  V30 1035 1 1011 1008
M  V30 1036 1 1008 1017
M  V30 1037 1 1008 1009
M  V30 1038 2 1009 1010
M  V30 1039 1 1009 1218
M  V30 1040 1 1012 1011
M  V30 1041 1 1019 1011
M  V30 1042 1 1018 1011
M  V30 1043 1 1021 1012
M  V30 1044 1 1013 1012
M  V30 1045 1 1012 1020
M  V30 1046 2 1015 1013
M  V30 1047 1 1013 1014
M  V30 1048 1 1014 1219
M  V30 1049 1 1030 1022
M  V30 1050 1 1022 1023
M  V30 1051 1 1022 1220
M  V30 1052 1 1026 1023
M  V30 1053 1 1023 1031
M  V30 1054 1 1023 1024
M  V30 1055 2 1025 1024
M  V30 1056 1 1024 1041
M  V30 1057 1 1032 1026
M  V30 1058 1 1027 1026
M  V30 1059 1 1033 1026
M  V30 1060 1 1028 1027
M  V30 1061 1 1034 1027
M  V30 1062 1 1027 1029
M  V30 1063 1 1037 1028
M  V30 1064 1 1036 1028
M  V30 1065 1 1028 1035
M  V30 1066 1 1039 1029
M  V30 1067 1 1029 1040
M  V30 1068 1 1029 1038
M  V30 1069 1 1041 1048
M  V30 1070 1 1041 1042
M  V30 1071 1 1049 1042
M  V30 1072 1 1042 1043
M  V30 1073 1 1042 1045
M  V30 1074 1 1057 1043
M  V30 1075 2 1043 1044
M  V30 1076 1 1045 1047
M  V30 1077 1 1045 1050
M  V30 1078 1 1045 1046
M  V30 1079 1 1051 1046
M  V30 1080 1 1046 1053
M  V30 1081 1 1046 1052
M  V30 1082 1 1056 1047
M  V30 1083 1 1054 1047
M  V30 1084 1 1047 1055
M  V30 1085 1 1066 1057
M  V30 1086 1 1057 1058
M  V30 1087 1 1061 1058
M  V30 1088 1 1058 1067
M  V30 1089 1 1058 1059
M  V30 1090 2 1060 1059
M  V30 1091 1 1059 1079
M  V30 1092 1 1062 1061
M  V30 1093 1 1068 1061
M  V30 1094 1 1061 1069
M  V30 1095 1 1063 1062
M  V30 1096 1 1071 1062
M  V30 1097 1 1062 1070
M  V30 1098 1 1064 1063
M  V30 1099 1 1072 1063
M  V30 1100 1 1063 1073
M  V30 1101 1 1065 1064
M  V30 1102 1 1075 1064
M  V30 1103 1 1064 1074
M  V30 1104 1 1077 1065
M  V30 1105 1 1078 1065
M  V30 1106 1 1065 1076
M  V30 1107 1 1079 1086
M  V30 1108 1 1079 1080
M  V30 1109 1 1081 1080
M  V30 1110 1 1080 1087
M  V30 1111 1 1080 1083
M  V30 1112 2 1082 1081
M  V30 1113 1 1081 1095
M  V30 1114 1 1088 1083
M  V30 1115 1 1083 1084
M  V30 1116 1 1083 1085
M  V30 1117 1 1091 1084
M  V30 1118 1 1084 1089
M  V30 1119 1 1084 1090
M  V30 1120 1 1092 1085
M  V30 1121 1 1085 1094
M  V30 1122 1 1085 1093
M  V30 1123 1 1096 1095
M  V30 1124 1 1095 1100
M  V30 1125 1 1099 1096
M  V30 1126 1 1101 1096
M  V30 1127 1 1096 1097
M  V30 1128 1 1105 1097
M  V30 1129 2 1097 1098
M  V30 1130 1 1102 1099
M  V30 1131 1 1103 1099
M  V30 1132 1 1099 1104
M  V30 1133 1 1113 1105
M  V30 1134 1 1105 1106
M  V30 1135 1 1114 1106
M  V30 1136 1 1106 1109
M  V30 1137 1 1106 1107
M  V30 1138 1 1117 1107
M  V30 1139 2 1107 1108
M  V30 1140 1 1115 1109
M  V30 1141 1 1110 1109
M  V30 1142 1 1109 1116
M  V30 1143 2 1112 1110
M  V30 1144 1 1110 1111
M  V30 1145 1 1128 1117
M  V30 1146 1 1117 1118
M  V30 1147 1 1121 1118
M  V30 1148 1 1118 1119
M  V30 1149 1 1118 1129
M  V30 1150 1 1137 1119
M  V30 1151 2 1119 1120
M  V30 1152 1 1130 1121
M  V30 1153 1 1122 1121
M  V30 1154 1 1121 1131
M  V30 1155 2 1124 1122
M  V30 1156 1 1122 1123
M  V30 1157 2 1125 1123
M  V30 1158 1 1123 1132
M  V30 1159 1 1133 1124
M  V30 1160 1 1126 1124
M  V30 1161 1 1127 1125
M  V30 1162 1 1125 1134
M  V30 1163 1 1135 1126
M  V30 1164 2 1126 1127
M  V30 1165 1 1136 1127
M  V30 1166 1 1141 1137
M  V30 1167 1 1137 1138
M  V30 1168 1 1143 1138
M  V30 1169 1 1142 1138
M  V30 1170 1 1138 1139
M  V30 1171 2 1139 1140
M  V30 1172 1 1139 1144
M  V30 1173 1 1152 1144
M  V30 1174 1 1144 1145
M  V30 1175 1 1145 1153
M  V30 1176 1 1145 1146
M  V30 1177 1 1145 1148
M  V30 1178 1 1163 1146
M  V30 1179 2 1146 1147
M  V30 1180 1 1154 1148
M  V30 1181 1 1149 1148
M  V30 1182 1 1148 1155
M  V30 1183 1 1156 1149
M  V30 1184 1 1149 1151
M  V30 1185 1 1149 1150
M  V30 1186 1 1159 1150
M  V30 1187 1 1158 1150
M  V30 1188 1 1150 1157
M  V30 1189 1 1160 1151
M  V30 1190 1 1161 1151
M  V30 1191 1 1151 1162
M  V30 1192 1 1169 1163
M  V30 1193 1 1163 1164
M  V30 1194 1 1167 1164
M  V30 1195 1 1164 1165
M  V30 1196 1 1164 1170
M  V30 1197 2 1166 1165
M  V30 1198 1 1165 1221
M  V30 1199 1 1171 1167
M  V30 1200 1 1167 1168
M  V30 1201 1 1167 1172
M  V30 1202 1 1173 1168
M  V30 1203 1 1175 1174
M  V30 1204 1 1174 1182
M  V30 1205 1 1174 1222
M  V30 1206 1 1178 1175
M  V30 1207 1 1183 1175
M  V30 1208 1 1175 1176
M  V30 1209 2 1177 1176
M  V30 1210 1 1176 1223
M  V30 1211 1 1179 1178
M  V30 1212 1 1184 1178
M  V30 1213 1 1178 1185
M  V30 1214 1 1180 1179
M  V30 1215 1 1181 1179
M  V30 1216 1 1179 1186
M  V30 1217 1 1188 1180
M  V30 1218 1 1187 1180
M  V30 1219 1 1180 1189
M  V30 1220 1 1191 1181
M  V30 1221 1 1192 1181
M  V30 1222 1 1181 1190
M  V30 END BOND
M  V30 END CTAB
M  END
