../example_data/3udh/3udh_protein_pocket.pdb
 OpenBabel04062300053D

  0  0  0     0  0            999 V3000
M  V30 BEGIN CTAB
M  V30 COUNTS 1203 1201 0 0 1
M  V30 BEGIN ATOM
M  V30 1 N 31.992 27.43 36.673 0
M  V30 2 C 31.543 27.831 37.996 0
M  V30 3 C 31.523 29.305 38.326 0
M  V30 4 O 31.146 29.68 39.431 0
M  V30 5 H 31.316 27.25 35.958 0
M  V30 6 H 32.204 27.342 38.727 0
M  V30 7 H 30.517 27.455 38.12 0
M  V30 8 N 31.94 30.165 37.397 0
M  V30 9 C 32.116 31.574 37.717 0
M  V30 10 C 31.266 32.492 36.848 0
M  V30 11 O 31.349 33.7 36.995 0
M  V30 12 C 33.592 31.982 37.651 0
M  V30 13 C 34.486 31.167 38.615 0
M  V30 14 C 35.852 31.812 38.871 0
M  V30 15 N 36.189 31.997 40.14 0
M  V30 16 O 36.571 32.172 37.935 0
M  V30 17 H 32.134 29.839 36.472 0
M  V30 18 H 31.782 31.711 38.756 0
M  V30 19 H 33.953 31.828 36.623 0
M  V30 20 H 33.674 33.047 37.913 0
M  V30 21 H 33.962 31.068 39.577 0
M  V30 22 H 34.648 30.169 38.181 0
M  V30 23 H 35.563 31.72 40.869 0
M  V30 24 H 37.069 32.414 40.368 0
M  V30 25 N 30.457 31.9 35.965 0
M  V30 26 C 29.422 32.628 35.239 0
M  V30 27 C 29.772 32.689 33.767 0
M  V30 28 O 30.936 32.807 33.412 0
M  V30 29 H 30.565 30.92 35.795 0
M  V30 30 H 29.346 33.65 35.639 0
M  V30 31 H 28.458 32.113 35.364 0
M  V30 32 N 28.752 32.79 32.929 0
M  V30 33 C 28.926 32.957 31.481 0
M  V30 34 C 28.73 34.426 31.134 0
M  V30 35 O 27.715 35.037 31.53 0
M  V30 36 C 27.91 32.131 30.703 0
M  V30 37 C 28.123 30.631 30.748 0
M  V30 38 C 27.661 29.882 31.815 0
M  V30 39 C 28.694 29.971 29.69 0
M  V30 40 C 27.879 28.512 31.873 0
M  V30 41 C 28.955 28.614 29.754 0
M  V30 42 C 28.505 27.885 30.824 0
M  V30 43 O 28.724 26.529 30.839 0
M  V30 44 H 27.823 32.751 33.298 0
M  V30 45 H 29.941 32.641 31.199 0
M  V30 46 H 27.949 32.448 29.65 0
M  V30 47 H 26.912 32.345 31.114 0
M  V30 48 H 27.121 30.372 32.617 0
M  V30 49 H 28.945 30.521 28.79 0
M  V30 50 H 27.558 27.943 32.738 0
M  V30 51 H 29.513 28.129 28.961 0
M  V30 52 H 28.36 26.158 31.634 0
M  V30 53 N 29.683 35.007 30.405 0
M  V30 54 C 29.578 36.427 30.051 0
M  V30 55 C 29.583 36.676 28.559 0
M  V30 56 O 30.092 35.844 27.794 0
M  V30 57 C 30.637 37.257 30.751 0
M  V30 58 C 32.075 36.883 30.439 0
M  V30 59 C 32.64 37.205 29.206 0
M  V30 60 C 32.828 36.115 31.334 0
M  V30 61 C 33.965 36.876 28.928 0
M  V30 62 C 34.157 35.798 31.056 0
M  V30 63 C 34.706 36.171 29.857 0
M  V30 64 O 36.007 35.772 29.568 0
M  V30 65 H 30.471 34.474 30.099 0
M  V30 66 H 28.602 36.771 30.424 0
M  V30 67 H 30.488 37.152 31.836 0
M  V30 68 H 30.49 38.308 30.461 0
M  V30 69 H 32.044 37.715 28.458 0
M  V30 70 H 32.373 35.763 32.253 0
M  V30 71 H 34.413 37.172 27.986 0
M  V30 72 H 34.753 35.26 31.784 0
M  V30 73 H 36.256 36.099 28.712 0
M  V30 74 N 32.994 42.914 29.719 0
M  V30 75 C 32.443 41.564 29.723 0
M  V30 76 C 31.365 41.515 30.769 0
M  V30 77 O 31.581 41.924 31.911 0
M  V30 78 C 33.536 40.549 30.037 0
M  V30 79 C 34.49 40.328 28.853 0
M  V30 80 N 35.694 39.828 29.145 0
M  V30 81 O 34.086 40.461 27.688 0
M  V30 82 H 33.668 43.167 30.413 0
M  V30 83 H 32.012 41.337 28.737 0
M  V30 84 H 34.118 40.912 30.897 0
M  V30 85 H 33.063 39.589 30.293 0
M  V30 86 H 35.932 39.619 30.094 0
M  V30 87 H 36.357 39.663 28.415 0
M  V30 88 N 30.194 41.072 30.339 0
M  V30 89 C 28.988 41.183 31.154 0
M  V30 90 C 28.339 39.795 31.386 0
M  V30 91 O 27.981 39.089 30.43 0
M  V30 92 C 28 42.101 30.467 0
M  V30 93 C 28.636 43.453 30.119 0
M  V30 94 C 26.768 42.303 31.371 0
M  V30 95 C 28.987 44.266 31.351 0
M  V30 96 H 30.134 40.651 29.434 0
M  V30 97 H 29.259 41.613 32.13 0
M  V30 98 H 27.674 41.623 29.531 0
M  V30 99 H 29.555 43.272 29.542 0
M  V30 100 H 27.927 44.029 29.507 0
M  V30 101 H 27.084 42.743 32.329 0
M  V30 102 H 26.056 42.978 30.875 0
M  V30 103 H 26.285 41.332 31.555 0
M  V30 104 H 29.695 43.7 31.974 0
M  V30 105 H 29.447 45.217 31.044 0
M  V30 106 H 28.073 44.47 31.928 0
M  V30 107 N 28.148 39.464 32.662 0
M  V30 108 C 27.516 38.221 33.087 0
M  V30 109 C 26.081 38.137 32.555 0
M  V30 110 O 25.273 39.051 32.779 0
M  V30 111 C 27.489 38.162 34.604 0
M  V30 112 C 26.839 36.907 35.212 0
M  V30 113 C 27.733 35.665 34.984 0
M  V30 114 C 26.581 37.108 36.712 0
M  V30 115 H 28.455 40.103 33.367 0
M  V30 116 H 28.096 37.371 32.698 0
M  V30 117 H 28.528 38.212 34.963 0
M  V30 118 H 26.933 39.039 34.966 0
M  V30 119 H 25.874 36.738 34.712 0
M  V30 120 H 28.715 35.829 35.451 0
M  V30 121 H 27.256 34.782 35.434 0
M  V30 122 H 27.864 35.5 33.904 0
M  V30 123 H 25.915 37.971 36.857 0
M  V30 124 H 26.107 36.206 37.127 0
M  V30 125 H 27.536 37.291 37.227 0
M  V30 126 N 25.745 37.021 31.924 0
M  V30 127 C 24.399 36.8 31.408 0
M  V30 128 C 23.577 36.148 32.534 0
M  V30 129 O 23.888 35.007 32.97 0
M  V30 130 C 24.424 35.922 30.148 0
M  V30 131 C 23.005 35.471 29.755 0
M  V30 132 C 25.15 36.688 29.003 0
M  V30 133 H 26.436 36.309 31.798 0
M  V30 134 H 23.948 37.769 31.147 0
M  V30 135 H 25.008 35.017 30.372 0
M  V30 136 H 22.379 36.355 29.564 0
M  V30 137 H 23.055 34.854 28.846 0
M  V30 138 H 22.568 34.882 30.574 0
M  V30 139 H 26.177 36.928 29.316 0
M  V30 140 H 25.179 36.058 28.102 0
M  V30 141 H 24.607 37.619 28.783 0
M  V30 142 N 22.64 36.931 33.09 0
M  V30 143 C 21.918 36.553 34.299 0
M  V30 144 C 20.392 36.611 34.122 0
M  V30 145 O 19.779 37.703 34.081 0
M  V30 146 C 22.315 37.485 35.439 0
M  V30 147 C 21.882 36.961 36.797 0
M  V30 148 O 20.677 37.112 37.087 0
M  V30 149 O 22.731 36.409 37.537 0 CHG=-1
M  V30 150 H 22.429 37.808 32.658 0
M  V30 151 H 22.199 35.522 34.562 0
M  V30 152 H 23.409 37.598 35.437 0
M  V30 153 H 21.845 38.465 35.273 0
M  V30 154 N 19.764 35.446 34.032 0
M  V30 155 C 18.296 35.41 33.84 0
M  V30 156 C 17.53 35.496 35.163 0
M  V30 157 O 16.294 35.443 35.164 0
M  V30 158 C 17.828 34.182 33.03 0
M  V30 159 C 18.499 34.16 31.601 0
M  V30 160 O 18.156 32.975 33.717 0
M  V30 161 H 20.282 34.593 34.094 0
M  V30 162 H 18.033 36.303 33.254 0
M  V30 163 H 16.736 34.238 32.909 0
M  V30 164 H 17.862 32.23 33.206 0
M  V30 165 H 19.414 34.77 31.616 0
M  V30 166 H 18.753 33.124 31.331 0
M  V30 167 H 17.797 34.571 30.86 0
M  V30 168 N 18.267 35.627 36.257 0
M  V30 169 C 17.705 35.693 37.622 0
M  V30 170 C 17.547 37.101 38.218 0
M  V30 171 O 17.423 37.267 39.438 0
M  V30 172 H 19.26 35.684 36.153 0
M  V30 173 H 18.367 35.119 38.287 0
M  V30 174 H 16.711 35.223 37.6 0
M  V30 175 N 17.752 38.111 37.386 0
M  V30 176 C 17.726 39.521 37.801 0
M  V30 177 C 17.367 40.388 36.58 0
M  V30 178 O 17.321 39.887 35.45 0
M  V30 179 C 19.094 39.926 38.333 0
M  V30 180 O 20.095 39.709 37.346 0
M  V30 181 H 17.934 37.903 36.425 0
M  V30 182 H 16.971 39.661 38.589 0
M  V30 183 H 19.077 40.992 38.603 0
M  V30 184 H 19.328 39.326 39.225 0
M  V30 185 H 20.942 39.966 37.692 0
M  V30 186 N 17.205 41.694 36.793 0
M  V30 187 C 16.577 42.525 35.78 0
M  V30 188 C 17.289 43.86 35.593 0
M  V30 189 O 16.749 44.745 34.964 0
M  V30 190 C 15.114 42.76 36.142 0
M  V30 191 O 14.443 41.516 36.129 0
M  V30 192 H 17.516 42.102 37.651 0
M  V30 193 H 16.617 41.983 34.824 0
M  V30 194 H 15.047 43.207 37.145 0
M  V30 195 H 14.654 43.437 35.407 0
M  V30 196 H 13.529 41.647 36.353 0
M  V30 197 N 18.435 44.028 36.242 0
M  V30 198 C 19.236 45.256 36.088 0
M  V30 199 C 20.404 45.052 35.132 0
M  V30 200 O 21.1 44.051 35.24 0
M  V30 201 C 19.76 45.704 37.45 0
M  V30 202 C 18.709 46.469 38.239 0
M  V30 203 N 18.702 47.806 38.093 0
M  V30 204 O 17.789 45.857 38.81 0
M  V30 205 H 18.763 43.304 36.85 0
M  V30 206 H 18.587 46.045 35.68 0
M  V30 207 H 20.06 44.816 38.025 0
M  V30 208 H 20.634 46.355 37.298 0
M  V30 209 H 19.366 48.247 37.489 0
M  V30 210 H 18.032 48.36 38.588 0
M  V30 211 N 20.741 46.1 34.372 0
M  V30 212 C 22.036 46.19 33.711 0
M  V30 213 C 22.96 47.075 34.546 0
M  V30 214 O 22.644 48.247 34.801 0
M  V30 215 C 21.847 46.784 32.302 0
M  V30 216 C 23.131 46.905 31.49 0
M  V30 217 C 23.377 48.038 30.735 0
M  V30 218 C 24.038 45.879 31.418 0
M  V30 219 C 24.543 48.149 29.985 0
M  V30 220 C 25.183 45.978 30.642 0
M  V30 221 C 25.403 47.094 29.888 0
M  V30 222 H 20.084 46.844 34.254 0
M  V30 223 H 22.476 45.185 33.625 0
M  V30 224 H 21.149 46.139 31.748 0
M  V30 225 H 21.412 47.789 32.408 0
M  V30 226 H 22.655 48.846 30.728 0
M  V30 227 H 23.856 44.97 31.98 0
M  V30 228 H 24.77 49.078 29.475 0
M  V30 229 H 25.904 45.168 30.634 0
M  V30 230 H 26.254 47.142 29.218 0
M  V30 231 N 23.996 46.467 35.105 0
M  V30 232 C 24.897 47.158 36.025 0
M  V30 233 C 26.34 46.808 35.692 0
M  V30 234 O 26.653 45.654 35.34 0
M  V30 235 C 24.558 46.791 37.467 0
M  V30 236 H 24.167 45.505 34.891 0
M  V30 237 H 24.764 48.243 35.902 0
M  V30 238 H 25.242 47.317 38.15 0
M  V30 239 H 23.522 47.087 37.687 0
M  V30 240 H 24.666 45.705 37.604 0
M  V30 241 N 27.228 47.8 35.788 0
M  V30 242 C 28.621 47.609 35.421 0
M  V30 243 C 29.571 48.248 36.448 0
M  V30 244 O 29.304 49.332 36.966 0
M  V30 245 C 28.903 48.173 34.002 0
M  V30 246 C 28.043 47.443 32.974 0
M  V30 247 C 28.652 49.707 33.947 0
M  V30 248 H 26.928 48.694 36.12 0
M  V30 249 H 28.819 46.527 35.404 0
M  V30 250 H 29.961 47.991 33.761 0
M  V30 251 H 26.98 47.578 33.223 0
M  V30 252 H 28.24 47.854 31.973 0
M  V30 253 H 28.289 46.371 32.985 0
M  V30 254 H 29.308 50.212 34.671 0
M  V30 255 H 28.869 50.078 32.935 0
M  V30 256 H 27.601 49.916 34.196 0
M  V30 257 N 30.62 47.538 36.826 0
M  V30 258 C 31.702 48.165 37.591 0
M  V30 259 C 32.08 49.52 37.018 0
M  V30 260 O 32.266 49.658 35.805 0
M  V30 261 H 30.676 46.568 36.589 0
M  V30 262 H 32.584 47.508 37.566 0
M  V30 263 H 31.373 48.297 38.632 0
M  V30 264 N 38.471 48.228 41.538 0
M  V30 265 C 38.212 47.148 42.486 0
M  V30 266 C 39.228 46.038 42.244 0
M  V30 267 O 39.623 45.797 41.108 0
M  V30 268 C 36.76 46.659 42.33 0
M  V30 269 C 36.389 45.535 43.244 0
M  V30 270 C 35.52 45.478 44.279 0
M  V30 271 N 36.844 44.251 43.056 0
M  V30 272 C 36.342 43.47 43.994 0
M  V30 273 N 35.53 44.188 44.745 0
M  V30 274 H 38.954 48.025 40.686 0
M  V30 275 H 38.343 47.527 43.51 0
M  V30 276 H 36.087 47.505 42.534 0
M  V30 277 H 36.62 46.321 41.293 0
M  V30 278 H 37.477 43.947 42.302 0
M  V30 279 H 34.924 46.302 44.669 0
M  V30 280 H 36.561 42.411 44.126 0
M  V30 281 N 39.241 43.001 42.012 0
M  V30 282 C 38.878 41.92 41.122 0
M  V30 283 C 38.531 42.377 39.697 0
M  V30 284 O 38.155 41.555 38.865 0
M  V30 285 C 37.703 41.13 41.704 0
M  V30 286 C 38.007 40.446 43.008 0
M  V30 287 C 36.975 40.01 43.821 0
M  V30 288 C 39.316 40.277 43.443 0
M  V30 289 C 37.233 39.398 45.041 0
M  V30 290 C 39.582 39.659 44.656 0
M  V30 291 C 38.54 39.23 45.46 0
M  V30 292 H 38.523 43.526 42.468 0
M  V30 293 H 39.745 41.247 41.052 0
M  V30 294 H 36.866 41.825 41.866 0
M  V30 295 H 37.407 40.363 40.973 0
M  V30 296 H 35.949 40.148 43.5 0
M  V30 297 H 40.136 40.631 42.829 0
M  V30 298 H 36.414 39.054 45.662 0
M  V30 299 H 40.608 39.512 44.975 0
M  V30 300 H 38.748 38.763 46.416 0
M  V30 301 N 38.667 43.665 39.401 0
M  V30 302 C 38.334 44.169 38.055 0
M  V30 303 C 39.569 44.559 37.245 0
M  V30 304 O 40.367 45.365 37.688 0
M  V30 305 C 37.402 45.382 38.156 0
M  V30 306 C 36.047 45.145 38.829 0
M  V30 307 C 35.269 46.44 38.907 0
M  V30 308 C 35.249 44.074 38.097 0
M  V30 309 H 38.999 44.3 40.098 0
M  V30 310 H 37.81 43.367 37.515 0
M  V30 311 H 37.928 46.161 38.727 0
M  V30 312 H 37.21 45.743 37.135 0
M  V30 313 H 36.23 44.792 39.854 0
M  V30 314 H 35.112 46.835 37.893 0
M  V30 315 H 34.295 46.254 39.383 0
M  V30 316 H 35.834 47.172 39.503 0
M  V30 317 H 35.817 43.132 38.092 0
M  V30 318 H 34.288 43.919 38.609 0
M  V30 319 H 35.066 44.397 37.062 0
M  V30 320 N 21.223 46.898 45.313 0
M  V30 321 C 20.77 45.54 44.982 0
M  V30 322 C 21.504 44.501 45.842 0
M  V30 323 O 22.688 44.226 45.638 0
M  V30 324 C 20.947 45.233 43.483 0
M  V30 325 C 20.462 43.833 43.157 0
M  V30 326 C 20.175 46.229 42.665 0
M  V30 327 H 22.204 47.073 45.398 0
M  V30 328 H 19.697 45.476 45.214 0
M  V30 329 H 22.015 45.308 43.229 0
M  V30 330 H 19.398 43.742 43.422 0
M  V30 331 H 20.589 43.642 42.081 0
M  V30 332 H 21.047 43.099 43.731 0
M  V30 333 H 20.54 47.244 42.883 0
M  V30 334 H 20.313 46.011 41.596 0
M  V30 335 H 19.107 46.161 42.918 0
M  V30 336 N 20.804 43.945 46.845 0
M  V30 337 C 21.393 42.887 47.668 0
M  V30 338 C 20.881 41.517 47.226 0
M  V30 339 O 19.721 41.386 46.847 0
M  V30 340 C 20.882 43.226 49.064 0
M  V30 341 C 19.518 43.844 48.817 0
M  V30 342 C 19.508 44.39 47.388 0
M  V30 343 H 22.492 42.908 47.625 0
M  V30 344 H 20.794 42.318 49.679 0
M  V30 345 H 21.551 43.943 49.562 0
M  V30 346 H 18.734 43.081 48.932 0
M  V30 347 H 19.342 44.661 49.532 0
M  V30 348 H 18.673 43.967 46.811 0
M  V30 349 H 19.436 45.488 47.386 0
M  V30 350 N 21.742 40.513 47.261 0
M  V30 351 C 21.293 39.142 47.07 0
M  V30 352 C 21.601 38.317 48.325 0
M  V30 353 O 22.264 38.802 49.243 0
M  V30 354 C 21.967 38.526 45.835 0
M  V30 355 C 22.07 39.43 44.608 0
M  V30 356 C 20.953 39.746 43.829 0
M  V30 357 C 23.314 39.821 44.143 0
M  V30 358 C 21.086 40.525 42.651 0
M  V30 359 C 23.461 40.548 42.972 0
M  V30 360 C 22.353 40.919 42.245 0
M  V30 361 O 22.555 41.653 41.08 0
M  V30 362 H 22.712 40.698 47.42 0
M  V30 363 H 20.205 39.146 46.909 0
M  V30 364 H 21.392 37.633 45.548 0
M  V30 365 H 22.987 38.229 46.121 0
M  V30 366 H 19.973 39.391 44.129 0
M  V30 367 H 24.197 39.551 44.71 0
M  V30 368 H 20.211 40.808 42.077 0
M  V30 369 H 24.451 40.825 42.628 0
M  V30 370 H 21.716 41.844 40.677 0
M  V30 371 N 21.173 37.057 48.354 0
M  V30 372 C 21.627 36.146 49.415 0
M  V30 373 C 23.153 36.16 49.427 0
M  V30 374 O 23.789 36.38 50.459 0
M  V30 375 C 21.127 34.7 49.187 0
M  V30 376 C 21.417 33.827 50.399 0
M  V30 377 O 19.711 34.709 48.95 0
M  V30 378 H 20.541 36.729 47.652 0
M  V30 379 H 21.247 36.504 50.383 0
M  V30 380 H 21.64 34.279 48.31 0
M  V30 381 H 19.408 33.82 48.81 0
M  V30 382 H 21.555 34.464 51.285 0
M  V30 383 H 20.573 33.142 50.567 0
M  V30 384 H 22.333 33.244 50.221 0
M  V30 385 N 23.729 35.977 48.248 0
M  V30 386 C 25.166 36.017 48.072 0
M  V30 387 C 25.534 37.208 47.184 0
M  V30 388 O 25.242 37.209 45.993 0
M  V30 389 C 25.644 34.709 47.436 0
M  V30 390 C 26.998 34.8 46.716 0
M  V30 391 C 27.75 33.488 46.75 0
M  V30 392 N 28.044 33.009 47.954 0
M  V30 393 O 28.017 32.886 45.711 0
M  V30 394 H 23.151 35.805 47.451 0
M  V30 395 H 25.649 36.136 49.053 0
M  V30 396 H 25.729 33.953 48.231 0
M  V30 397 H 24.888 34.388 46.704 0
M  V30 398 H 26.824 35.082 45.667 0
M  V30 399 H 27.609 35.572 47.206 0
M  V30 400 H 27.769 33.512 48.773 0
M  V30 401 H 28.54 32.145 48.041 0
M  V30 402 N 26.136 38.229 47.782 0
M  V30 403 C 26.607 39.397 47.04 0
M  V30 404 C 25.649 40.568 47.124 0
M  V30 405 O 24.427 40.377 47.197 0
M  V30 406 H 26.272 38.198 48.772 0
M  V30 407 H 26.729 39.117 45.983 0
M  V30 408 H 27.579 39.707 47.452 0
M  V30 409 N 26.209 41.78 47.068 0
M  V30 410 C 25.431 43.017 46.951 0
M  V30 411 C 26.248 44.125 46.265 0
M  V30 412 O 27.474 44.04 46.18 0
M  V30 413 C 24.989 43.481 48.334 0
M  V30 414 C 26.139 43.921 49.23 0
M  V30 415 C 25.609 44.493 50.542 0
M  V30 416 C 26.727 45.095 51.376 0
M  V30 417 N 27.752 44.084 51.766 0 CHG=1
M  V30 418 H 27.206 41.846 47.108 0
M  V30 419 H 24.538 42.813 46.342 0
M  V30 420 H 24.3 44.33 48.212 0
M  V30 421 H 24.463 42.65 48.827 0
M  V30 422 H 26.781 43.054 49.447 0
M  V30 423 H 26.727 44.692 48.711 0
M  V30 424 H 24.868 45.275 50.318 0
M  V30 425 H 25.129 43.687 51.116 0
M  V30 426 H 27.217 45.887 50.791 0
M  V30 427 H 26.293 45.528 52.289 0
M  V30 428 H 28.156 43.678 50.937 0
M  V30 429 H 28.475 44.531 52.308 0
M  V30 430 H 27.318 43.361 52.317 0
M  V30 431 N 25.557 45.093 45.662 0
M  V30 432 C 26.225 46.237 45.046 0
M  V30 433 C 25.355 47.475 45.1 0
M  V30 434 O 24.159 47.395 45.356 0
M  V30 435 C 26.629 45.942 43.588 0
M  V30 436 C 25.49 45.511 42.69 0
M  V30 437 C 25.186 44.223 42.324 0
M  V30 438 C 24.624 46.36 41.91 0
M  V30 439 C 23.757 45.515 41.179 0
M  V30 440 C 24.421 47.738 41.843 0
M  V30 441 N 24.127 44.22 41.434 0
M  V30 442 C 22.73 46.018 40.385 0
M  V30 443 C 23.406 48.227 41.048 0
M  V30 444 C 22.571 47.372 40.334 0
M  V30 445 H 24.559 45.035 45.631 0
M  V30 446 H 27.142 46.439 45.619 0
M  V30 447 H 27.073 46.855 43.164 0
M  V30 448 H 27.381 45.139 43.597 0
M  V30 449 H 25.703 43.334 42.682 0
M  V30 450 H 23.688 43.381 41.029 0
M  V30 451 H 25.052 48.415 42.408 0
M  V30 452 H 22.079 45.356 39.826 0
M  V30 453 H 23.255 49.298 40.978 0
M  V30 454 H 21.778 47.791 39.725 0
M  V30 455 N 28.279 50.854 39.064 0
M  V30 456 C 28.51 50.273 40.391 0
M  V30 457 C 29.686 50.991 41.053 0
M  V30 458 O 30.771 51.022 40.501 0
M  V30 459 C 28.804 48.752 40.283 0
M  V30 460 C 27.531 48.014 39.784 0
M  V30 461 C 29.264 48.173 41.627 0
M  V30 462 C 27.749 46.543 39.384 0
M  V30 463 H 28.571 50.334 38.261 0
M  V30 464 H 27.609 50.416 41.006 0
M  V30 465 H 29.609 48.603 39.549 0
M  V30 466 H 26.782 48.042 40.589 0
M  V30 467 H 27.145 48.553 38.906 0
M  V30 468 H 28.48 48.332 42.382 0
M  V30 469 H 29.453 47.095 41.516 0
M  V30 470 H 30.189 48.676 41.946 0
M  V30 471 H 28.131 45.981 40.249 0
M  V30 472 H 26.794 46.107 39.056 0
M  V30 473 H 28.477 46.491 38.561 0
M  V30 474 N 30.686 47.498 46.151 0
M  V30 475 C 30.194 46.12 46.114 0
M  V30 476 C 30.736 45.284 47.268 0
M  V30 477 O 31.763 45.613 47.861 0
M  V30 478 C 30.52 45.455 44.772 0
M  V30 479 O 31.915 45.33 44.526 0
M  V30 480 H 31.591 47.677 46.538 0
M  V30 481 H 29.099 46.157 46.215 0
M  V30 482 H 30.073 44.45 44.764 0
M  V30 483 H 30.077 46.06 43.967 0
M  V30 484 H 32.052 44.913 43.684 0
M  V30 485 N 30.06 44.177 47.553 0
M  V30 486 C 30.589 43.191 48.498 0
M  V30 487 C 30.201 41.805 48.047 0
M  V30 488 O 29.022 41.531 47.851 0
M  V30 489 C 30.039 43.445 49.907 0
M  V30 490 C 30.87 42.763 50.995 0
M  V30 491 O 31.848 43.372 51.477 0
M  V30 492 O 30.538 41.621 51.366 0 CHG=-1
M  V30 493 H 29.176 44.014 47.115 0
M  V30 494 H 31.686 43.27 48.522 0
M  V30 495 H 30.036 44.529 50.094 0
M  V30 496 H 29.009 43.061 49.958 0
M  V30 497 N 31.216 40.969 47.833 0
M  V30 498 C 31.051 39.562 47.5 0
M  V30 499 C 30.175 39.42 46.262 0
M  V30 500 O 29.36 38.505 46.156 0
M  V30 501 C 30.487 38.802 48.701 0
M  V30 502 C 31.413 38.87 49.924 0
M  V30 503 C 30.708 38.411 51.194 0
M  V30 504 C 31.629 38.493 52.422 0
M  V30 505 N 32.055 39.895 52.762 0 CHG=1
M  V30 506 H 32.146 41.33 47.905 0
M  V30 507 H 32.04 39.141 47.266 0
M  V30 508 H 29.514 39.238 48.97 0
M  V30 509 H 30.351 37.747 48.419 0
M  V30 510 H 32.285 38.223 49.747 0
M  V30 511 H 31.749 39.909 50.059 0
M  V30 512 H 29.83 39.051 51.365 0
M  V30 513 H 30.382 37.369 51.063 0
M  V30 514 H 31.094 38.073 53.287 0
M  V30 515 H 32.53 37.895 52.222 0
M  V30 516 H 31.24 40.458 52.949 0
M  V30 517 H 32.646 39.878 53.578 0
M  V30 518 H 32.564 40.289 51.986 0
M  V30 519 N 30.337 40.382 45.349 0
M  V30 520 C 29.633 40.379 44.071 0
M  V30 521 C 30.596 39.984 42.954 0
M  V30 522 O 30.454 38.923 42.334 0
M  V30 523 C 29.01 41.757 43.806 0
M  V30 524 C 28.332 41.859 42.471 0
M  V30 525 C 27.253 41.034 42.157 0
M  V30 526 C 28.784 42.755 41.525 0
M  V30 527 C 26.618 41.153 40.92 0
M  V30 528 C 28.177 42.855 40.298 0
M  V30 529 C 27.133 42.035 39.976 0
M  V30 530 H 30.965 41.134 45.549 0
M  V30 531 H 28.824 39.634 44.115 0
M  V30 532 H 28.267 41.96 44.591 0
M  V30 533 H 29.807 42.514 43.851 0
M  V30 534 H 26.907 40.299 42.875 0
M  V30 535 H 29.632 43.39 41.754 0
M  V30 536 H 25.735 40.565 40.698 0
M  V30 537 H 28.528 43.588 39.581 0
M  V30 538 H 26.704 42.072 38.981 0
M  V30 539 N 31.601 40.811 42.714 0
M  V30 540 C 32.626 40.445 41.737 0
M  V30 541 C 33.416 39.231 42.2 0
M  V30 542 O 33.571 39.003 43.41 0
M  V30 543 C 33.574 41.614 41.449 0
M  V30 544 C 32.887 42.805 40.851 0
M  V30 545 C 32.772 43.98 41.561 0
M  V30 546 C 32.28 42.712 39.619 0
M  V30 547 C 32.063 45.069 41.044 0
M  V30 548 C 31.586 43.792 39.078 0
M  V30 549 C 31.467 44.964 39.798 0
M  V30 550 H 31.659 41.683 43.199 0
M  V30 551 H 32.116 40.182 40.798 0
M  V30 552 H 34.045 41.922 42.394 0
M  V30 553 H 34.349 41.27 40.748 0
M  V30 554 H 33.239 44.062 42.536 0
M  V30 555 H 32.343 41.785 39.061 0
M  V30 556 H 31.981 45.988 41.614 0
M  V30 557 H 31.14 43.712 38.093 0
M  V30 558 H 30.909 45.799 39.39 0
M  V30 559 N 33.848 38.432 41.233 0
M  V30 560 C 34.515 37.164 41.498 0
M  V30 561 C 35.927 37.197 40.912 0
M  V30 562 O 36.102 37.369 39.701 0
M  V30 563 C 33.74 35.988 40.88 0
M  V30 564 C 32.304 35.924 41.42 0
M  V30 565 C 34.476 34.655 41.152 0
M  V30 566 C 31.469 34.78 40.808 0
M  V30 567 H 33.71 38.712 40.283 0
M  V30 568 H 34.578 37.017 42.586 0
M  V30 569 H 33.692 36.142 39.792 0
M  V30 570 H 32.347 35.78 42.51 0
M  V30 571 H 31.805 36.878 41.196 0
M  V30 572 H 34.569 34.503 42.237 0
M  V30 573 H 33.904 33.824 40.713 0
M  V30 574 H 35.478 34.69 40.699 0
M  V30 575 H 31.954 33.816 41.023 0
M  V30 576 H 30.46 34.788 41.246 0
M  V30 577 H 31.397 34.92 39.719 0
M  V30 578 N 36.937 37.02 41.762 0
M  V30 579 C 38.335 37.026 41.298 0
M  V30 580 C 38.574 35.961 40.245 0
M  V30 581 O 38.23 34.785 40.432 0
M  V30 582 C 39.319 36.809 42.464 0
M  V30 583 C 40.732 37.324 42.156 0
M  V30 584 N 40.983 37.693 40.903 0
M  V30 585 O 41.573 37.412 43.053 0
M  V30 586 H 36.743 36.88 42.733 0
M  V30 587 H 38.539 38.01 40.85 0
M  V30 588 H 38.937 37.339 43.349 0
M  V30 589 H 39.377 35.732 42.679 0
M  V30 590 H 40.265 37.628 40.209 0
M  V30 591 H 41.889 38.035 40.655 0
M  V30 592 N 37.111 35.709 37.281 0
M  V30 593 C 35.927 35.367 36.476 0
M  V30 594 C 35.943 36.075 35.134 0
M  V30 595 O 35.227 35.672 34.225 0
M  V30 596 C 34.629 35.745 37.202 0
M  V30 597 O 34.481 37.161 37.301 0
M  V30 598 H 37.016 36.362 38.032 0
M  V30 599 H 35.933 34.281 36.303 0
M  V30 600 H 33.774 35.334 36.645 0
M  V30 601 H 34.647 35.315 38.214 0
M  V30 602 H 33.671 37.364 37.754 0
M  V30 603 N 34.519 38.866 34.267 0
M  V30 604 C 33.425 39.794 33.987 0
M  V30 605 C 33.405 41.014 34.929 0
M  V30 606 O 33.854 40.966 36.099 0
M  V30 607 C 32.045 39.066 33.898 0
M  V30 608 C 31.688 38.27 35.078 0
M  V30 609 C 31.749 36.911 35.175 0
M  V30 610 C 31.026 38.716 36.283 0
M  V30 611 C 30.829 37.573 37.086 0
M  V30 612 C 30.641 39.967 36.789 0
M  V30 613 N 31.278 36.498 36.378 0
M  V30 614 C 30.276 37.649 38.375 0
M  V30 615 C 30.042 40.027 38.038 0
M  V30 616 C 29.898 38.886 38.826 0
M  V30 617 H 34.499 38.293 35.087 0
M  V30 618 H 33.62 40.196 32.982 0
M  V30 619 H 31.266 39.828 33.752 0
M  V30 620 H 32.069 38.394 33.027 0
M  V30 621 H 32.124 36.25 34.395 0
M  V30 622 H 31.262 35.522 36.706 0
M  V30 623 H 30.809 40.87 36.214 0
M  V30 624 H 30.153 36.764 38.989 0
M  V30 625 H 29.679 40.979 38.409 0
M  V30 626 H 29.476 38.98 39.82 0
M  V30 627 N 32.872 42.114 34.396 0
M  V30 628 C 32.874 43.381 35.08 0
M  V30 629 C 31.482 43.978 35.281 0
M  V30 630 O 31.356 45.056 35.86 0
M  V30 631 C 33.738 44.368 34.293 0
M  V30 632 C 35.188 43.962 34.165 0
M  V30 633 C 35.548 43.407 32.801 0
M  V30 634 O 36.552 42.688 32.739 0
M  V30 635 O 34.859 43.694 31.794 0 CHG=-1
M  V30 636 H 32.456 42.057 33.488 0
M  V30 637 H 33.322 43.229 36.073 0
M  V30 638 H 33.317 44.464 33.281 0
M  V30 639 H 33.697 45.343 34.801 0
M  V30 640 H 35.814 44.846 34.356 0
M  V30 641 H 35.401 43.191 34.92 0
M  V30 642 N 30.433 43.291 34.822 0
M  V30 643 C 29.066 43.746 35.044 0
M  V30 644 C 28.085 42.591 34.865 0
M  V30 645 O 28.497 41.448 34.669 0
M  V30 646 H 30.589 42.444 34.314 0
M  V30 647 H 28.827 44.54 34.321 0
M  V30 648 H 28.977 44.142 36.067 0
M  V30 649 N 26.797 42.91 34.92 0
M  V30 650 C 25.739 41.918 34.931 0
M  V30 651 C 24.586 42.376 34.05 0
M  V30 652 O 24.253 43.568 34.038 0
M  V30 653 C 25.237 41.657 36.366 0
M  V30 654 C 24.195 40.534 36.364 0
M  V30 655 C 24.648 42.931 37.003 0
M  V30 656 C 23.921 39.997 37.791 0
M  V30 657 H 26.545 43.877 34.955 0
M  V30 658 H 26.14 40.977 34.526 0
M  V30 659 H 26.094 41.335 36.975 0
M  V30 660 H 23.255 40.922 35.943 0
M  V30 661 H 24.564 39.708 35.738 0
M  V30 662 H 23.807 43.291 36.393 0
M  V30 663 H 24.293 42.703 38.019 0
M  V30 664 H 25.424 43.709 37.052 0
M  V30 665 H 23.555 40.816 38.427 0
M  V30 666 H 23.162 39.202 37.744 0
M  V30 667 H 24.851 39.591 38.215 0
M  V30 668 N 24.166 41.496 33.141 0
M  V30 669 C 23.015 41.765 32.27 0
M  V30 670 C 21.8 40.979 32.755 0
M  V30 671 O 21.71 39.764 32.589 0
M  V30 672 C 23.335 41.429 30.815 0
M  V30 673 C 22.209 41.604 29.792 0
M  V30 674 C 21.769 43.034 29.599 0
M  V30 675 C 22.66 41.019 28.466 0
M  V30 676 H 24.65 40.626 33.049 0
M  V30 677 H 22.78 42.838 32.33 0
M  V30 678 H 24.169 42.074 30.502 0
M  V30 679 H 23.653 40.376 30.781 0
M  V30 680 H 21.339 41.034 30.15 0
M  V30 681 H 22.623 43.638 29.259 0
M  V30 682 H 20.969 43.073 28.845 0
M  V30 683 H 21.394 43.434 30.553 0
M  V30 684 H 22.895 39.952 28.597 0
M  V30 685 H 21.855 41.129 27.724 0
M  V30 686 H 23.557 41.552 28.116 0
M  V30 687 N 20.944 41.651 33.515 0
M  V30 688 C 19.73 41.033 34.028 0
M  V30 689 C 18.626 40.98 32.99 0
M  V30 690 O 18.155 42.035 32.498 0
M  V30 691 H 21.138 42.606 33.741 0
M  V30 692 H 19.375 41.614 34.892 0
M  V30 693 H 19.964 40.007 34.348 0
M  V30 694 N 18.305 39.764 32.588 0
M  V30 695 C 17.401 39.482 31.49 0
M  V30 696 C 15.947 39.194 31.906 0
M  V30 697 O 15.112 38.892 31.065 0
M  V30 698 C 17.961 38.338 30.662 0
M  V30 699 C 19.187 38.75 29.838 0
M  V30 700 C 19.907 37.522 29.291 0
M  V30 701 C 18.804 39.705 28.715 0
M  V30 702 H 18.711 38.988 33.071 0
M  V30 703 H 17.377 40.379 30.854 0
M  V30 704 H 18.251 37.521 31.34 0
M  V30 705 H 17.178 37.984 29.975 0
M  V30 706 H 19.881 39.279 30.507 0
M  V30 707 H 19.218 36.946 28.655 0
M  V30 708 H 20.775 37.841 28.696 0
M  V30 709 H 20.247 36.893 30.127 0
M  V30 710 H 18.34 40.606 29.142 0
M  V30 711 H 19.705 39.988 28.151 0
M  V30 712 H 18.09 39.21 28.04 0
M  V30 713 N 15.68 39.162 33.198 0
M  V30 714 C 14.322 38.95 33.676 0
M  V30 715 C 13.505 40.237 33.638 0
M  V30 716 O 13.884 41.229 32.988 0
M  V30 717 C 14.355 38.403 35.106 0
M  V30 718 H 16.421 39.285 33.858 0
M  V30 719 H 13.836 38.21 33.024 0
M  V30 720 H 13.326 38.245 35.462 0
M  V30 721 H 14.899 37.447 35.12 0
M  V30 722 H 14.863 39.124 35.763 0
M  V30 723 N 12.344 40.213 34.292 0
M  V30 724 C 11.318 41.222 33.994 0
M  V30 725 C 11.379 42.449 34.918 0
M  V30 726 O 11.922 42.397 36.034 0
M  V30 727 C 9.913 40.584 34.046 0
M  V30 728 C 9.655 39.489 33.006 0
M  V30 729 C 9.871 38.155 33.312 0
M  V30 730 C 9.274 39.798 31.702 0
M  V30 731 C 9.539 37.166 32.422 0
M  V30 732 C 8.959 38.816 30.792 0
M  V30 733 C 9.142 37.5 31.141 0
M  V30 734 O 8.884 36.483 30.263 0
M  V30 735 H 12.172 39.511 34.983 0
M  V30 736 H 11.493 41.575 32.967 0
M  V30 737 H 9.171 41.381 33.892 0
M  V30 738 H 9.776 40.144 35.045 0
M  V30 739 H 10.308 37.89 34.268 0
M  V30 740 H 9.225 40.837 31.397 0
M  V30 741 H 9.588 36.126 32.722 0
M  V30 742 H 8.572 39.077 29.814 0
M  V30 743 H 9.067 35.65 30.681 0
M  V30 744 N 11.03 42.804 39.077 0
M  V30 745 C 12.096 42.664 40.039 0
M  V30 746 C 13.305 43.599 39.812 0
M  V30 747 O 14.342 43.404 40.439 0
M  V30 748 C 12.567 41.196 40.192 0
M  V30 749 C 13.115 40.629 38.882 0
M  V30 750 C 11.388 40.338 40.752 0
M  V30 751 C 13.768 39.286 39.051 0
M  V30 752 H 11.161 42.461 38.147 0
M  V30 753 H 11.663 42.956 41.007 0
M  V30 754 H 13.384 41.175 40.928 0
M  V30 755 H 12.284 40.527 38.169 0
M  V30 756 H 13.859 41.332 38.48 0
M  V30 757 H 10.534 40.392 40.06 0
M  V30 758 H 11.712 39.292 40.854 0
M  V30 759 H 11.087 40.726 41.736 0
M  V30 760 H 13.036 38.57 39.454 0
M  V30 761 H 14.131 38.929 38.076 0
M  V30 762 H 14.615 39.375 39.747 0
M  V30 763 N 13.169 44.558 38.89 0
M  V30 764 C 14.186 45.612 38.707 0
M  V30 765 C 14.281 46.488 39.958 0
M  V30 766 O 13.294 46.671 40.675 0
M  V30 767 C 13.878 46.461 37.462 0
M  V30 768 H 12.356 44.561 38.308 0
M  V30 769 H 15.161 45.125 38.555 0
M  V30 770 H 14.649 47.238 37.348 0
M  V30 771 H 13.872 45.816 36.571 0
M  V30 772 H 12.893 46.936 37.577 0
M  V30 773 N 15.502 46.902 40.281 0
M  V30 774 C 15.744 47.894 41.324 0
M  V30 775 C 16.07 49.23 40.702 0
M  V30 776 O 16.665 49.291 39.62 0
M  V30 777 C 16.893 47.47 42.226 0
M  V30 778 C 16.549 46.297 43.146 0
M  V30 779 C 15.26 46.56 43.904 0
M  V30 780 N 14.931 45.479 44.827 0
M  V30 781 C 15.475 45.322 46.031 0
M  V30 782 N 15.093 44.31 46.798 0 CHG=1
M  V30 783 N 16.4 46.173 46.473 0
M  V30 784 H 16.285 46.519 39.791 0
M  V30 785 H 14.833 47.994 41.932 0
M  V30 786 H 17.743 47.177 41.592 0
M  V30 787 H 17.18 48.329 42.85 0
M  V30 788 H 16.43 45.387 42.54 0
M  V30 789 H 17.367 46.153 43.867 0
M  V30 790 H 15.37 47.493 44.476 0
M  V30 791 H 14.439 46.669 43.18 0
M  V30 792 H 14.228 44.789 44.525 0
M  V30 793 H 14.378 43.65 46.461 0
M  V30 794 H 15.511 44.184 47.731 0
M  V30 795 H 16.7 46.961 45.881 0
M  V30 796 H 16.815 46.043 47.407 0
M  V30 797 N 19.484 30.45 25.058 0
M  V30 798 C 20.78 30.217 25.677 0
M  V30 799 C 21.2 28.755 25.514 0
M  V30 800 O 20.441 27.81 25.846 0
M  V30 801 C 20.73 30.573 27.173 0
M  V30 802 C 20.568 32.035 27.527 0
M  V30 803 C 20.417 32.205 29.057 0
M  V30 804 C 21.746 32.846 27.039 0
M  V30 805 H 18.727 29.849 25.313 0
M  V30 806 H 21.526 30.858 25.184 0
M  V30 807 H 19.883 30.029 27.615 0
M  V30 808 H 21.668 30.223 27.629 0
M  V30 809 H 19.657 32.412 27.039 0
M  V30 810 H 21.308 31.802 29.56 0
M  V30 811 H 20.311 33.273 29.299 0
M  V30 812 H 19.525 31.661 29.4 0
M  V30 813 H 21.832 32.747 25.947 0
M  V30 814 H 21.596 33.904 27.301 0
M  V30 815 H 22.667 32.477 27.514 0
M  V30 816 N 24.326 26.939 27.092 0
M  V30 817 C 25.505 26.961 27.931 0
M  V30 818 C 26.212 25.61 27.841 0
M  V30 819 O 25.61 24.558 28.055 0
M  V30 820 C 25.122 27.272 29.381 0
M  V30 821 C 24.266 28.521 29.632 0
M  V30 822 C 24.036 28.748 31.139 0
M  V30 823 C 24.869 29.749 28.951 0
M  V30 824 H 23.466 26.576 27.452 0
M  V30 825 H 26.186 27.745 27.57 0
M  V30 826 H 24.565 26.406 29.768 0
M  V30 827 H 26.055 27.392 29.951 0
M  V30 828 H 23.282 28.344 29.174 0
M  V30 829 H 25.006 28.871 31.644 0
M  V30 830 H 23.429 29.654 31.285 0
M  V30 831 H 23.509 27.881 31.564 0
M  V30 832 H 24.937 29.571 27.868 0
M  V30 833 H 24.23 30.624 29.14 0
M  V30 834 H 25.875 29.936 29.356 0
M  V30 835 N 8.23 37.822 36.47 0
M  V30 836 C 9.048 38.58 37.408 0
M  V30 837 C 10.475 38.033 37.373 0
M  V30 838 O 11.246 38.407 36.504 0
M  V30 839 C 8.456 38.607 38.83 0
M  V30 840 C 8.227 37.287 39.564 0
M  V30 841 C 7.696 36.112 39.08 0
M  V30 842 C 8.38 37.095 40.969 0
M  V30 843 C 8.024 35.754 41.258 0
M  V30 844 C 8.841 37.91 42.002 0
M  V30 845 N 7.626 35.172 40.083 0
M  V30 846 C 8.066 35.24 42.544 0
M  V30 847 C 8.871 37.391 43.28 0
M  V30 848 C 8.547 36.055 43.522 0
M  V30 849 H 8.399 36.843 36.356 0
M  V30 850 H 9.081 39.622 37.056 0
M  V30 851 H 9.137 39.207 39.451 0
M  V30 852 H 7.481 39.112 38.763 0
M  V30 853 H 7.377 35.95 38.051 0
M  V30 854 H 7.325 34.194 39.969 0
M  V30 855 H 9.167 38.925 41.806 0
M  V30 856 H 7.73 34.233 42.762 0
M  V30 857 H 9.151 38.031 44.109 0
M  V30 858 H 8.683 35.654 44.52 0
M  V30 859 N 10.716 36.975 38.114 0
M  V30 860 C 11.673 35.944 37.671 0
M  V30 861 C 11.144 35.165 36.442 0
M  V30 862 O 9.99 35.287 36.03 0
M  V30 863 C 11.959 34.972 38.834 0
M  V30 864 C 12.572 35.601 40.049 0
M  V30 865 C 13.926 35.934 40.091 0
M  V30 866 C 11.794 35.891 41.18 0
M  V30 867 C 14.48 36.566 41.213 0
M  V30 868 C 12.329 36.557 42.255 0
M  V30 869 C 13.676 36.843 42.299 0
M  V30 870 O 14.193 37.437 43.456 0
M  V30 871 H 10.245 36.868 38.989 0
M  V30 872 H 12.612 36.441 37.387 0
M  V30 873 H 12.647 34.195 38.468 0
M  V30 874 H 11.007 34.508 39.133 0
M  V30 875 H 14.56 35.7 39.243 0
M  V30 876 H 10.755 35.585 41.206 0
M  V30 877 H 15.53 36.834 41.227 0
M  V30 878 H 11.687 36.86 43.074 0
M  V30 879 H 15.126 37.578 43.35 0
M  V30 880 N 11.978 34.297 35.867 0
M  V30 881 C 11.466 33.308 34.941 0
M  V30 882 C 10.971 32.103 35.746 0
M  V30 883 O 11.716 31.15 35.99 0
M  V30 884 C 12.542 32.903 33.926 0
M  V30 885 C 12.808 33.96 32.887 0
M  V30 886 C 13.901 34.77 33 0
M  V30 887 C 11.876 34.243 31.896 0
M  V30 888 C 14.132 35.786 32.087 0
M  V30 889 C 12.092 35.225 30.951 0
M  V30 890 C 13.24 35.996 31.049 0
M  V30 891 O 13.404 37.077 30.229 0
M  V30 892 H 12.956 34.329 36.075 0
M  V30 893 H 10.617 33.74 34.391 0
M  V30 894 H 12.213 31.986 33.415 0
M  V30 895 H 13.478 32.704 34.469 0
M  V30 896 H 14.598 34.616 33.816 0
M  V30 897 H 10.953 33.676 31.864 0
M  V30 898 H 15.009 36.415 32.185 0
M  V30 899 H 11.38 35.39 30.15 0
M  V30 900 H 14.235 37.495 30.419 0
M  V30 901 N 9.395 29.331 45.406 0
M  V30 902 C 9.263 29.495 43.971 0
M  V30 903 C 10.243 28.533 43.282 0
M  V30 904 O 11.119 27.98 43.93 0
M  V30 905 C 9.587 30.94 43.526 0
M  V30 906 C 11.025 31.385 43.785 0
M  V30 907 C 11.228 32.848 43.491 0
M  V30 908 C 12.466 33.384 44.152 0
M  V30 909 N 12.35 33.375 45.676 0 CHG=1
M  V30 910 H 10.222 28.898 45.766 0
M  V30 911 H 8.232 29.251 43.674 0
M  V30 912 H 9.395 31.016 42.446 0
M  V30 913 H 8.915 31.623 44.067 0
M  V30 914 H 11.269 31.198 44.841 0
M  V30 915 H 11.699 30.798 43.144 0
M  V30 916 H 11.318 32.983 42.403 0
M  V30 917 H 10.357 33.409 43.859 0
M  V30 918 H 13.324 32.762 43.857 0
M  V30 919 H 12.63 34.418 43.814 0
M  V30 920 H 12.196 32.432 45.996 0
M  V30 921 H 13.202 33.732 46.08 0
M  V30 922 H 11.576 33.956 45.957 0
M  V30 923 N 12.734 28.843 39.722 0
M  V30 924 C 13.12 29.78 38.675 0
M  V30 925 C 14.248 29.212 37.835 0
M  V30 926 O 14.968 28.301 38.251 0
M  V30 927 C 13.578 31.192 39.21 0
M  V30 928 C 14.897 31.114 39.989 0
M  V30 929 C 12.503 31.851 40.108 0
M  V30 930 C 15.487 32.499 40.288 0
M  V30 931 H 13.435 28.378 40.263 0
M  V30 932 H 12.243 29.931 38.029 0
M  V30 933 H 13.736 31.84 38.336 0
M  V30 934 H 14.714 30.596 40.942 0
M  V30 935 H 15.624 30.542 39.394 0
M  V30 936 H 12.296 31.2 40.97 0
M  V30 937 H 12.87 32.825 40.464 0
M  V30 938 H 11.58 31.997 39.528 0
M  V30 939 H 14.768 33.083 40.881 0
M  V30 940 H 16.423 32.384 40.855 0
M  V30 941 H 15.693 33.022 39.342 0
M  V30 942 N 14.408 29.781 36.646 0
M  V30 943 C 15.517 29.436 35.758 0
M  V30 944 C 16.478 30.636 35.791 0
M  V30 945 O 16.098 31.762 35.401 0
M  V30 946 C 15.04 29.18 34.311 0
M  V30 947 C 16.229 28.754 33.389 0
M  V30 948 C 13.94 28.105 34.283 0
M  V30 949 H 13.747 30.469 36.348 0
M  V30 950 H 16.025 28.534 36.131 0
M  V30 951 H 14.619 30.117 33.919 0
M  V30 952 H 16.688 27.835 33.783 0
M  V30 953 H 15.856 28.57 32.371 0
M  V30 954 H 16.98 29.557 33.364 0
M  V30 955 H 13.087 28.437 34.894 0
M  V30 956 H 13.609 27.946 33.246 0
M  V30 957 H 14.337 27.163 34.689 0
M  V30 958 N 17.703 30.365 36.228 0
M  V30 959 C 18.721 31.394 36.498 0
M  V30 960 C 20.119 31.028 35.969 0
M  V30 961 O 20.872 30.247 36.567 0
M  V30 962 C 18.787 31.735 37.994 0
M  V30 963 C 19.779 32.873 38.301 0
M  V30 964 O 20.268 33.539 37.358 0
M  V30 965 O 20.066 33.111 39.497 0 CHG=-1
M  V30 966 H 17.948 29.408 36.382 0
M  V30 967 H 18.404 32.303 35.966 0
M  V30 968 H 17.785 32.041 38.33 0
M  V30 969 H 19.1 30.837 38.546 0
M  V30 970 N 20.47 31.57 34.81 0
M  V30 971 C 21.785 31.31 34.234 0
M  V30 972 C 22.937 31.834 35.053 0
M  V30 973 O 24.081 31.43 34.826 0
M  V30 974 C 21.892 31.952 32.854 0
M  V30 975 O 21.649 33.325 32.948 0
M  V30 976 H 19.826 32.163 34.326 0
M  V30 977 H 21.898 30.22 34.136 0
M  V30 978 H 22.903 31.787 32.452 0
M  V30 979 H 21.151 31.496 32.181 0
M  V30 980 H 21.717 33.718 32.086 0
M  V30 981 N 22.658 32.763 35.966 0
M  V30 982 C 23.693 33.377 36.795 0
M  V30 983 C 23.938 32.651 38.1 0
M  V30 984 O 24.747 33.093 38.932 0
M  V30 985 H 21.708 33.05 36.088 0
M  V30 986 H 23.388 34.409 37.024 0
M  V30 987 H 24.633 33.391 36.224 0
M  V30 988 N 23.212 31.548 38.295 0
M  V30 989 C 23.457 30.648 39.414 0
M  V30 990 C 24.133 29.379 38.923 0
M  V30 991 O 23.706 28.805 37.933 0
M  V30 992 C 22.148 30.296 40.176 0
M  V30 993 C 22.399 29.192 41.205 0
M  V30 994 O 21.665 31.451 40.886 0
M  V30 995 H 22.477 31.333 37.653 0
M  V30 996 H 24.135 31.154 40.117 0
M  V30 997 H 21.39 29.961 39.453 0
M  V30 998 H 20.866 31.227 41.348 0
M  V30 999 H 23.47 29.159 41.454 0
M  V30 1000 H 21.818 29.4 42.115 0
M  V30 1001 H 22.09 28.223 40.786 0
M  V30 1002 N 25.235 28.969 39.559 0
M  V30 1003 C 25.965 27.782 39.098 0
M  V30 1004 C 25.209 26.492 39.277 0
M  V30 1005 O 25.144 25.652 38.371 0
M  V30 1006 C 27.298 27.616 39.848 0
M  V30 1007 C 27.944 26.248 39.511 0
M  V30 1008 O 28.164 28.676 39.454 0
M  V30 1009 H 25.565 29.475 40.356 0
M  V30 1010 H 26.173 27.917 38.026 0
M  V30 1011 H 27.118 27.671 40.932 0
M  V30 1012 H 28.995 28.591 39.907 0
M  V30 1013 H 27.538 25.875 38.559 0
M  V30 1014 H 29.034 26.369 39.423 0
M  V30 1015 H 27.719 25.529 40.312 0
M  V30 1016 N 24.725 26.292 40.495 0
M  V30 1017 C 24.225 25.018 40.929 0
M  V30 1018 C 22.781 24.8 40.542 0
M  V30 1019 O 22.045 25.769 40.284 0
M  V30 1020 C 24.368 24.917 42.442 0
M  V30 1021 C 25.815 24.697 42.864 0
M  V30 1022 N 26.037 24.522 44.17 0
M  V30 1023 O 26.704 24.605 42.019 0
M  V30 1024 H 24.707 27.059 41.137 0
M  V30 1025 H 24.831 24.229 40.459 0
M  V30 1026 H 24.003 25.85 42.896 0
M  V30 1027 H 23.761 24.073 42.801 0
M  V30 1028 H 25.272 24.54 44.814 0
M  V30 1029 H 26.968 24.373 44.503 0
M  V30 1030 N 19.885 24.411 42.731 0
M  V30 1031 C 19.594 24.69 44.145 0
M  V30 1032 C 18.172 24.223 44.448 0
M  V30 1033 O 17.252 24.473 43.679 0
M  V30 1034 C 19.742 26.184 44.455 0
M  V30 1035 C 21.088 26.794 44.072 0
M  V30 1036 C 21.202 28.232 44.562 0
M  V30 1037 N 21.269 28.303 46.014 0
M  V30 1038 C 20.511 29.091 46.765 0
M  V30 1039 N 20.608 29.032 48.093 0 CHG=1
M  V30 1040 N 19.594 29.87 46.209 0
M  V30 1041 H 19.464 24.974 42.019 0
M  V30 1042 H 20.3 24.128 44.774 0
M  V30 1043 H 18.955 26.725 43.909 0
M  V30 1044 H 19.6 26.323 45.537 0
M  V30 1045 H 21.894 26.196 44.523 0
M  V30 1046 H 21.19 26.779 42.977 0
M  V30 1047 H 22.114 28.681 44.141 0
M  V30 1048 H 20.323 28.796 44.218 0
M  V30 1049 H 21.953 27.699 46.492 0
M  V30 1050 H 21.27 28.376 48.532 0
M  V30 1051 H 20.021 29.642 48.68 0
M  V30 1052 H 19.466 29.866 45.187 0
M  V30 1053 H 19.009 30.479 46.799 0
M  V30 1054 N 18.665 25.373 49.273 0
M  V30 1055 C 18.124 26.737 49.156 0
M  V30 1056 C 17.089 27.017 50.278 0
M  V30 1057 O 16.321 26.125 50.644 0
M  V30 1058 C 17.439 26.86 47.808 0
M  V30 1059 O 16.916 28.145 47.621 0
M  V30 1060 H 18.02 24.61 49.32 0
M  V30 1061 H 18.945 27.466 49.227 0
M  V30 1062 H 18.171 26.651 47.013 0
M  V30 1063 H 16.62 26.128 47.754 0
M  V30 1064 H 16.494 28.194 46.771 0
M  V30 1065 N 15.19 29.871 49.434 0
M  V30 1066 C 14.417 30.752 48.583 0
M  V30 1067 C 13.944 30.016 47.313 0
M  V30 1068 O 13.72 30.64 46.28 0
M  V30 1069 C 15.242 31.998 48.176 0
M  V30 1070 C 15.643 32.819 49.435 0
M  V30 1071 O 16.426 31.584 47.488 0
M  V30 1072 H 15.968 29.383 49.038 0
M  V30 1073 H 13.532 31.086 49.145 0
M  V30 1074 H 14.636 32.63 47.51 0
M  V30 1075 H 16.931 32.349 47.239 0
M  V30 1076 H 15.601 32.172 50.323 0
M  V30 1077 H 16.665 33.205 49.31 0
M  V30 1078 H 14.946 33.66 49.561 0
M  V30 1079 N 13.525 26.626 44.419 0
M  V30 1080 C 14.381 25.935 43.444 0
M  V30 1081 C 15.028 26.92 42.49 0
M  V30 1082 O 14.388 27.845 41.981 0
M  V30 1083 C 13.553 24.906 42.636 0
M  V30 1084 C 14.392 24.232 41.563 0
M  V30 1085 O 13.066 23.907 43.543 0
M  V30 1086 H 12.534 26.62 44.287 0
M  V30 1087 H 15.173 25.403 43.991 0
M  V30 1088 H 12.705 25.419 42.159 0
M  V30 1089 H 12.555 23.266 43.063 0
M  V30 1090 H 15.457 24.318 41.823 0
M  V30 1091 H 14.116 23.169 41.495 0
M  V30 1092 H 14.21 24.721 40.594 0
M  V30 1093 N 16.301 26.718 42.229 0
M  V30 1094 C 16.978 27.454 41.176 0
M  V30 1095 C 17.578 26.451 40.185 0
M  V30 1096 O 18.475 25.657 40.516 0
M  V30 1097 C 18.081 28.389 41.71 0
M  V30 1098 C 18.638 29.269 40.579 0
M  V30 1099 C 17.554 29.243 42.897 0
M  V30 1100 H 16.812 26.046 42.765 0
M  V30 1101 H 16.233 28.071 40.652 0
M  V30 1102 H 18.904 27.764 42.086 0
M  V30 1103 H 17.825 29.872 40.149 0
M  V30 1104 H 19.415 29.935 40.982 0
M  V30 1105 H 19.073 28.629 39.797 0
M  V30 1106 H 17.219 28.578 43.707 0
M  V30 1107 H 18.36 29.894 43.267 0
M  V30 1108 H 16.71 29.862 42.557 0
M  V30 1109 N 17.081 26.512 38.959 0
M  V30 1110 C 17.64 25.769 37.847 0
M  V30 1111 C 18.753 26.622 37.24 0
M  V30 1112 O 18.55 27.416 36.324 0
M  V30 1113 C 16.543 25.437 36.816 0
M  V30 1114 C 15.407 24.679 37.446 0
M  V30 1115 S 13.975 24.279 36.382 0
M  V30 1116 C 14.776 23.88 34.871 0
M  V30 1117 H 16.286 27.096 38.793 0
M  V30 1118 H 18.07 24.826 38.216 0
M  V30 1119 H 16.155 26.375 36.392 0
M  V30 1120 H 16.98 24.825 36.014 0
M  V30 1121 H 15.813 23.729 37.825 0
M  V30 1122 H 15.035 25.281 38.288 0
M  V30 1123 H 15.463 23.036 35.032 0
M  V30 1124 H 14.023 23.602 34.119 0
M  V30 1125 H 15.344 24.752 34.516 0
M  V30 1126 N 19.948 26.399 37.754 0
M  V30 1127 C 21.096 27.179 37.363 0
M  V30 1128 C 21.832 26.501 36.248 0
M  V30 1129 O 21.282 25.659 35.516 0
M  V30 1130 H 20.06 25.672 38.431 0
M  V30 1131 H 21.769 27.292 38.226 0
M  V30 1132 H 20.762 28.172 37.026 0
M  V30 1133 N 23.107 26.819 36.142 0
M  V30 1134 C 23.913 26.326 35.023 0
M  V30 1135 C 24.006 24.799 34.948 0
M  V30 1136 O 24.004 24.273 33.829 0
M  V30 1137 C 25.312 26.962 35.03 0
M  V30 1138 H 23.529 27.404 36.834 0
M  V30 1139 H 23.409 26.656 34.103 0
M  V30 1140 H 25.895 26.575 34.181 0
M  V30 1141 H 25.219 28.055 34.943 0
M  V30 1142 H 25.824 26.712 35.971 0
M  V30 1143 N 21.002 23.963 33.035 0
M  V30 1144 C 20.999 24.585 31.731 0
M  V30 1145 C 22.01 23.975 30.789 0
M  V30 1146 O 21.783 23.964 29.584 0
M  V30 1147 C 21.187 26.119 31.832 0
M  V30 1148 C 19.973 26.788 32.46 0
M  V30 1149 S 20.007 28.583 32.465 0
M  V30 1150 C 19.847 28.878 30.722 0
M  V30 1151 H 21.312 24.489 33.827 0
M  V30 1152 H 20.005 24.407 31.294 0
M  V30 1153 H 22.072 26.331 32.45 0
M  V30 1154 H 21.338 26.528 30.822 0
M  V30 1155 H 19.081 26.466 31.903 0
M  V30 1156 H 19.897 26.446 33.503 0
M  V30 1157 H 18.907 28.435 30.36 0
M  V30 1158 H 19.839 29.962 30.533 0
M  V30 1159 H 20.696 28.42 30.193 0
M  V30 1160 H 32.599 28.1734 36.3274 0
M  V30 1161 H 29.1628 37.5382 28.1781 0
M  V30 1162 H 32.2084 43.557 29.8178 0
M  V30 1163 H 32.1822 50.3316 37.6473 0
M  V30 1164 H 37.566 48.6218 41.2807 0
M  V30 1165 H 39.5853 45.4865 43.0397 0
M  V30 1166 H 39.7908 43.6635 41.465 0
M  V30 1167 H 39.728 44.1369 36.3168 0
M  V30 1168 H 20.7961 47.1468 46.2054 0
M  V30 1169 H 25.7752 48.3999 44.9186 0
M  V30 1170 H 27.2752 51.0106 38.9736 0
M  V30 1171 H 29.5603 51.45 41.9687 0
M  V30 1172 H 30.015 48.0412 46.6943 0
M  V30 1173 H 32.0634 44.2304 51.1692 0
M  V30 1174 H 39.0312 36.2201 39.3569 0
M  V30 1175 H 37.8075 36.0899 36.6406 0
M  V30 1176 H 36.5548 36.8931 34.9874 0
M  V30 1177 H 35.3705 39.425 34.3211 0
M  V30 1178 H 37.0402 42.4971 33.5156 0
M  V30 1179 H 10.9586 43.3375 34.6035 0
M  V30 1180 H 10.2179 42.3205 39.4606 0
M  V30 1181 H 15.7939 50.0998 41.1839 0
M  V30 1182 H 15.674 43.8221 47.4253 0
M  V30 1183 H 19.2049 31.4036 25.2884 0
M  V30 1184 H 22.1298 28.5394 25.1216 0
M  V30 1185 H 24.1452 27.9028 26.8114 0
M  V30 1186 H 27.214 25.5787 27.596 0
M  V30 1187 H 7.26047 37.9241 36.77 0
M  V30 1188 H 9.9982 32.0877 36.0902 0
M  V30 1189 H 8.60225 28.7703 45.7183 0
M  V30 1190 H 10.1612 28.3534 42.2691 0
M  V30 1191 H 12.1774 28.115 39.2742 0
M  V30 1192 H 22.4029 23.8411 40.4914 0
M  V30 1193 H 20.895 24.493 42.6148 0
M  V30 1194 H 17.9838 23.6901 45.3115 0
M  V30 1195 H 21.2046 28.3891 47.6458 0
M  V30 1196 H 19.2299 25.3438 50.1218 0
M  V30 1197 H 17.0437 27.9496 50.7175 0
M  V30 1198 H 14.5485 29.1673 49.7997 0
M  V30 1199 H 13.815 28.9923 47.3318 0
M  V30 1200 H 13.8181 27.6029 44.4337 0
M  V30 1201 H 24.0684 24.227 35.8047 0
M  V30 1202 H 21.6015 23.1402 32.971 0
M  V30 1203 H 22.8853 23.5705 31.1568 0
M  V30 END ATOM
M  V30 BEGIN BOND
M  V30 1 1 5 1
M  V30 2 1 1 2
M  V30 3 1 1 1160
M  V30 4 1 2 7
M  V30 5 1 2 3
M  V30 6 1 2 6
M  V30 7 1 8 3
M  V30 8 2 3 4
M  V30 9 1 17 8
M  V30 10 1 8 9
M  V30 11 1 10 9
M  V30 12 1 12 9
M  V30 13 1 9 18
M  V30 14 1 25 10
M  V30 15 2 10 11
M  V30 16 1 19 12
M  V30 17 1 12 20
M  V30 18 1 12 13
M  V30 19 1 22 13
M  V30 20 1 13 14
M  V30 21 1 13 21
M  V30 22 2 16 14
M  V30 23 1 14 15
M  V30 24 1 15 24
M  V30 25 1 15 23
M  V30 26 1 26 25
M  V30 27 1 29 25
M  V30 28 1 27 26
M  V30 29 1 26 31
M  V30 30 1 26 30
M  V30 31 1 32 27
M  V30 32 2 28 27
M  V30 33 1 33 32
M  V30 34 1 32 44
M  V30 35 1 36 33
M  V30 36 1 34 33
M  V30 37 1 45 33
M  V30 38 1 53 34
M  V30 39 2 34 35
M  V30 40 1 46 36
M  V30 41 1 36 37
M  V30 42 1 36 47
M  V30 43 2 39 37
M  V30 44 1 37 38
M  V30 45 2 38 40
M  V30 46 1 38 48
M  V30 47 1 49 39
M  V30 48 1 39 41
M  V30 49 1 42 40
M  V30 50 1 40 50
M  V30 51 1 51 41
M  V30 52 2 41 42
M  V30 53 1 42 43
M  V30 54 1 43 52
M  V30 55 1 54 53
M  V30 56 1 65 53
M  V30 57 1 55 54
M  V30 58 1 54 66
M  V30 59 1 54 57
M  V30 60 2 56 55
M  V30 61 1 55 1161
M  V30 62 1 58 57
M  V30 63 1 68 57
M  V30 64 1 57 67
M  V30 65 2 59 58
M  V30 66 1 58 60
M  V30 67 1 69 59
M  V30 68 1 61 59
M  V30 69 2 62 60
M  V30 70 1 60 70
M  V30 71 1 71 61
M  V30 72 2 61 63
M  V30 73 1 63 62
M  V30 74 1 62 72
M  V30 75 1 64 63
M  V30 76 1 73 64
M  V30 77 1 74 75
M  V30 78 1 74 82
M  V30 79 1 74 1162
M  V30 80 1 83 75
M  V30 81 1 75 78
M  V30 82 1 75 76
M  V30 83 1 88 76
M  V30 84 2 76 77
M  V30 85 1 79 78
M  V30 86 1 78 85
M  V30 87 1 78 84
M  V30 88 2 81 79
M  V30 89 1 79 80
M  V30 90 1 87 80
M  V30 91 1 80 86
M  V30 92 1 96 88
M  V30 93 1 88 89
M  V30 94 1 92 89
M  V30 95 1 89 90
M  V30 96 1 89 97
M  V30 97 2 91 90
M  V30 98 1 90 107
M  V30 99 1 98 92
M  V30 100 1 93 92
M  V30 101 1 92 94
M  V30 102 1 100 93
M  V30 103 1 99 93
M  V30 104 1 93 95
M  V30 105 1 102 94
M  V30 106 1 94 103
M  V30 107 1 94 101
M  V30 108 1 105 95
M  V30 109 1 95 106
M  V30 110 1 95 104
M  V30 111 1 107 108
M  V30 112 1 107 115
M  V30 113 1 109 108
M  V30 114 1 116 108
M  V30 115 1 108 111
M  V30 116 1 126 109
M  V30 117 2 109 110
M  V30 118 1 111 117
M  V30 119 1 111 118
M  V30 120 1 111 112
M  V30 121 1 119 112
M  V30 122 1 113 112
M  V30 123 1 112 114
M  V30 124 1 122 113
M  V30 125 1 113 121
M  V30 126 1 113 120
M  V30 127 1 114 123
M  V30 128 1 114 124
M  V30 129 1 114 125
M  V30 130 1 127 126
M  V30 131 1 133 126
M  V30 132 1 130 127
M  V30 133 1 134 127
M  V30 134 1 127 128
M  V30 135 2 128 129
M  V30 136 1 128 142
M  V30 137 1 132 130
M  V30 138 1 131 130
M  V30 139 1 130 135
M  V30 140 1 137 131
M  V30 141 1 136 131
M  V30 142 1 131 138
M  V30 143 1 140 132
M  V30 144 1 141 132
M  V30 145 1 132 139
M  V30 146 1 150 142
M  V30 147 1 142 143
M  V30 148 1 144 143
M  V30 149 1 143 151
M  V30 150 1 143 146
M  V30 151 1 154 144
M  V30 152 2 145 144
M  V30 153 1 153 146
M  V30 154 1 152 146
M  V30 155 1 146 147
M  V30 156 2 147 148
M  V30 157 1 147 149
M  V30 158 1 155 154
M  V30 159 1 154 161
M  V30 160 1 158 155
M  V30 161 1 162 155
M  V30 162 1 155 156
M  V30 163 2 156 157
M  V30 164 1 156 168
M  V30 165 1 159 158
M  V30 166 1 163 158
M  V30 167 1 158 160
M  V30 168 1 167 159
M  V30 169 1 166 159
M  V30 170 1 159 165
M  V30 171 1 164 160
M  V30 172 1 172 168
M  V30 173 1 168 169
M  V30 174 1 174 169
M  V30 175 1 169 170
M  V30 176 1 169 173
M  V30 177 1 175 170
M  V30 178 2 170 171
M  V30 179 1 181 175
M  V30 180 1 175 176
M  V30 181 1 177 176
M  V30 182 1 176 179
M  V30 183 1 176 182
M  V30 184 2 178 177
M  V30 185 1 177 186
M  V30 186 1 180 179
M  V30 187 1 179 183
M  V30 188 1 179 184
M  V30 189 1 180 185
M  V30 190 1 187 186
M  V30 191 1 186 192
M  V30 192 1 193 187
M  V30 193 1 188 187
M  V30 194 1 187 190
M  V30 195 2 189 188
M  V30 196 1 188 197
M  V30 197 1 195 190
M  V30 198 1 191 190
M  V30 199 1 190 194
M  V30 200 1 191 196
M  V30 201 1 198 197
M  V30 202 1 197 205
M  V30 203 1 199 198
M  V30 204 1 206 198
M  V30 205 1 198 201
M  V30 206 1 211 199
M  V30 207 2 199 200
M  V30 208 1 208 201
M  V30 209 1 201 207
M  V30 210 1 201 202
M  V30 211 1 203 202
M  V30 212 2 202 204
M  V30 213 1 209 203
M  V30 214 1 203 210
M  V30 215 1 212 211
M  V30 216 1 222 211
M  V30 217 1 215 212
M  V30 218 1 223 212
M  V30 219 1 212 213
M  V30 220 2 213 214
M  V30 221 1 213 231
M  V30 222 1 216 215
M  V30 223 1 224 215
M  V30 224 1 215 225
M  V30 225 2 217 216
M  V30 226 1 218 216
M  V30 227 1 219 217
M  V30 228 1 226 217
M  V30 229 2 220 218
M  V30 230 1 218 227
M  V30 231 1 228 219
M  V30 232 2 221 219
M  V30 233 1 221 220
M  V30 234 1 229 220
M  V30 235 1 230 221
M  V30 236 1 236 231
M  V30 237 1 231 232
M  V30 238 1 233 232
M  V30 239 1 237 232
M  V30 240 1 232 235
M  V30 241 2 234 233
M  V30 242 1 233 241
M  V30 243 1 235 240
M  V30 244 1 235 239
M  V30 245 1 235 238
M  V30 246 1 242 241
M  V30 247 1 241 248
M  V30 248 1 245 242
M  V30 249 1 249 242
M  V30 250 1 242 243
M  V30 251 1 243 257
M  V30 252 2 243 244
M  V30 253 1 246 245
M  V30 254 1 250 245
M  V30 255 1 247 245
M  V30 256 1 252 246
M  V30 257 1 246 253
M  V30 258 1 246 251
M  V30 259 1 255 247
M  V30 260 1 247 256
M  V30 261 1 247 254
M  V30 262 1 261 257
M  V30 263 1 257 258
M  V30 264 1 259 258
M  V30 265 1 262 258
M  V30 266 1 258 263
M  V30 267 2 260 259
M  V30 268 1 259 1163
M  V30 269 1 274 264
M  V30 270 1 264 265
M  V30 271 1 264 1164
M  V30 272 1 266 265
M  V30 273 1 268 265
M  V30 274 1 265 275
M  V30 275 2 267 266
M  V30 276 1 266 1165
M  V30 277 1 277 268
M  V30 278 1 268 276
M  V30 279 1 268 269
M  V30 280 1 271 269
M  V30 281 2 269 270
M  V30 282 1 270 279
M  V30 283 1 270 273
M  V30 284 1 278 271
M  V30 285 1 271 272
M  V30 286 1 272 280
M  V30 287 2 272 273
M  V30 288 1 282 281
M  V30 289 1 281 292
M  V30 290 1 281 1166
M  V30 291 1 283 282
M  V30 292 1 293 282
M  V30 293 1 282 285
M  V30 294 2 284 283
M  V30 295 1 301 283
M  V30 296 1 295 285
M  V30 297 1 285 294
M  V30 298 1 285 286
M  V30 299 2 286 288
M  V30 300 1 286 287
M  V30 301 1 296 287
M  V30 302 2 287 289
M  V30 303 1 297 288
M  V30 304 1 288 290
M  V30 305 1 289 291
M  V30 306 1 289 298
M  V30 307 1 290 299
M  V30 308 2 290 291
M  V30 309 1 291 300
M  V30 310 1 302 301
M  V30 311 1 301 309
M  V30 312 1 303 302
M  V30 313 1 310 302
M  V30 314 1 302 305
M  V30 315 2 303 304
M  V30 316 1 303 1167
M  V30 317 1 312 305
M  V30 318 1 305 311
M  V30 319 1 305 306
M  V30 320 1 308 306
M  V30 321 1 306 307
M  V30 322 1 306 313
M  V30 323 1 314 307
M  V30 324 1 307 315
M  V30 325 1 307 316
M  V30 326 1 319 308
M  V30 327 1 317 308
M  V30 328 1 308 318
M  V30 329 1 321 320
M  V30 330 1 320 327
M  V30 331 1 320 1168
M  V30 332 1 324 321
M  V30 333 1 321 328
M  V30 334 1 321 322
M  V30 335 2 323 322
M  V30 336 1 322 336
M  V30 337 1 326 324
M  V30 338 1 325 324
M  V30 339 1 329 324
M  V30 340 1 331 325
M  V30 341 1 325 330
M  V30 342 1 325 332
M  V30 343 1 334 326
M  V30 344 1 326 333
M  V30 345 1 326 335
M  V30 346 1 336 342
M  V30 347 1 336 337
M  V30 348 1 338 337
M  V30 349 1 343 337
M  V30 350 1 337 340
M  V30 351 2 339 338
M  V30 352 1 338 350
M  V30 353 1 341 340
M  V30 354 1 340 345
M  V30 355 1 340 344
M  V30 356 1 342 341
M  V30 357 1 341 346
M  V30 358 1 341 347
M  V30 359 1 348 342
M  V30 360 1 349 342
M  V30 361 1 351 350
M  V30 362 1 350 362
M  V30 363 1 354 351
M  V30 364 1 363 351
M  V30 365 1 351 352
M  V30 366 1 352 371
M  V30 367 2 352 353
M  V30 368 1 355 354
M  V30 369 1 364 354
M  V30 370 1 354 365
M  V30 371 2 356 355
M  V30 372 1 357 355
M  V30 373 1 358 356
M  V30 374 1 356 366
M  V30 375 2 359 357
M  V30 376 1 357 367
M  V30 377 1 368 358
M  V30 378 2 360 358
M  V30 379 1 360 359
M  V30 380 1 369 359
M  V30 381 1 361 360
M  V30 382 1 370 361
M  V30 383 1 378 371
M  V30 384 1 371 372
M  V30 385 1 375 372
M  V30 386 1 372 373
M  V30 387 1 372 379
M  V30 388 1 385 373
M  V30 389 2 373 374
M  V30 390 1 380 375
M  V30 391 1 377 375
M  V30 392 1 375 376
M  V30 393 1 384 376
M  V30 394 1 376 383
M  V30 395 1 376 382
M  V30 396 1 381 377
M  V30 397 1 394 385
M  V30 398 1 386 385
M  V30 399 1 387 386
M  V30 400 1 389 386
M  V30 401 1 386 395
M  V30 402 2 388 387
M  V30 403 1 387 402
M  V30 404 1 397 389
M  V30 405 1 390 389
M  V30 406 1 389 396
M  V30 407 1 398 390
M  V30 408 1 390 391
M  V30 409 1 390 399
M  V30 410 2 393 391
M  V30 411 1 391 392
M  V30 412 1 392 401
M  V30 413 1 392 400
M  V30 414 1 403 402
M  V30 415 1 402 406
M  V30 416 1 407 403
M  V30 417 1 403 404
M  V30 418 1 403 408
M  V30 419 1 409 404
M  V30 420 2 404 405
M  V30 421 1 410 409
M  V30 422 1 409 418
M  V30 423 1 411 410
M  V30 424 1 419 410
M  V30 425 1 410 413
M  V30 426 1 431 411
M  V30 427 2 412 411
M  V30 428 1 420 413
M  V30 429 1 413 421
M  V30 430 1 413 414
M  V30 431 1 423 414
M  V30 432 1 414 422
M  V30 433 1 414 415
M  V30 434 1 424 415
M  V30 435 1 415 425
M  V30 436 1 415 416
M  V30 437 1 426 416
M  V30 438 1 416 417
M  V30 439 1 416 427
M  V30 440 1 428 417
M  V30 441 1 417 429
M  V30 442 1 417 430
M  V30 443 1 432 431
M  V30 444 1 445 431
M  V30 445 1 435 432
M  V30 446 1 432 433
M  V30 447 1 432 446
M  V30 448 2 433 434
M  V30 449 1 433 1169
M  V30 450 1 436 435
M  V30 451 1 447 435
M  V30 452 1 435 448
M  V30 453 1 438 436
M  V30 454 2 437 436
M  V30 455 1 441 437
M  V30 456 1 437 449
M  V30 457 2 439 438
M  V30 458 1 440 438
M  V30 459 1 442 439
M  V30 460 1 439 441
M  V30 461 2 443 440
M  V30 462 1 440 451
M  V30 463 1 450 441
M  V30 464 1 452 442
M  V30 465 2 444 442
M  V30 466 1 444 443
M  V30 467 1 453 443
M  V30 468 1 454 444
M  V30 469 1 463 455
M  V30 470 1 455 456
M  V30 471 1 455 1170
M  V30 472 1 459 456
M  V30 473 1 456 464
M  V30 474 1 456 457
M  V30 475 2 458 457
M  V30 476 1 457 1171
M  V30 477 1 465 459
M  V30 478 1 460 459
M  V30 479 1 459 461
M  V30 480 1 467 460
M  V30 481 1 462 460
M  V30 482 1 460 466
M  V30 483 1 469 461
M  V30 484 1 461 470
M  V30 485 1 461 468
M  V30 486 1 473 462
M  V30 487 1 472 462
M  V30 488 1 462 471
M  V30 489 1 475 474
M  V30 490 1 474 480
M  V30 491 1 474 1172
M  V30 492 1 478 475
M  V30 493 1 475 481
M  V30 494 1 475 476
M  V30 495 1 476 485
M  V30 496 2 476 477
M  V30 497 1 483 478
M  V30 498 1 479 478
M  V30 499 1 482 478
M  V30 500 1 484 479
M  V30 501 1 493 485
M  V30 502 1 485 486
M  V30 503 1 487 486
M  V30 504 1 486 494
M  V30 505 1 486 489
M  V30 506 1 497 487
M  V30 507 2 488 487
M  V30 508 1 489 496
M  V30 509 1 489 495
M  V30 510 1 489 490
M  V30 511 2 490 492
M  V30 512 1 490 491
M  V30 513 1 491 1173
M  V30 514 1 498 497
M  V30 515 1 497 506
M  V30 516 1 499 498
M  V30 517 1 507 498
M  V30 518 1 498 501
M  V30 519 1 519 499
M  V30 520 2 500 499
M  V30 521 1 509 501
M  V30 522 1 501 508
M  V30 523 1 501 502
M  V30 524 1 510 502
M  V30 525 1 502 511
M  V30 526 1 502 503
M  V30 527 1 513 503
M  V30 528 1 503 512
M  V30 529 1 503 504
M  V30 530 1 515 504
M  V30 531 1 504 505
M  V30 532 1 504 514
M  V30 533 1 518 505
M  V30 534 1 505 516
M  V30 535 1 505 517
M  V30 536 1 520 519
M  V30 537 1 519 530
M  V30 538 1 521 520
M  V30 539 1 523 520
M  V30 540 1 520 531
M  V30 541 2 522 521
M  V30 542 1 539 521
M  V30 543 1 524 523
M  V30 544 1 523 533
M  V30 545 1 523 532
M  V30 546 2 526 524
M  V30 547 1 525 524
M  V30 548 2 527 525
M  V30 549 1 525 534
M  V30 550 1 528 526
M  V30 551 1 526 535
M  V30 552 1 529 527
M  V30 553 1 536 527
M  V30 554 1 537 528
M  V30 555 2 529 528
M  V30 556 1 538 529
M  V30 557 1 540 539
M  V30 558 1 539 550
M  V30 559 1 551 540
M  V30 560 1 543 540
M  V30 561 1 540 541
M  V30 562 1 559 541
M  V30 563 2 541 542
M  V30 564 1 553 543
M  V30 565 1 544 543
M  V30 566 1 543 552
M  V30 567 2 546 544
M  V30 568 1 544 545
M  V30 569 2 547 545
M  V30 570 1 545 554
M  V30 571 1 555 546
M  V30 572 1 548 546
M  V30 573 1 549 547
M  V30 574 1 547 556
M  V30 575 1 557 548
M  V30 576 2 548 549
M  V30 577 1 558 549
M  V30 578 1 567 559
M  V30 579 1 559 560
M  V30 580 1 563 560
M  V30 581 1 561 560
M  V30 582 1 560 568
M  V30 583 2 562 561
M  V30 584 1 561 578
M  V30 585 1 569 563
M  V30 586 1 563 565
M  V30 587 1 563 564
M  V30 588 1 566 564
M  V30 589 1 571 564
M  V30 590 1 564 570
M  V30 591 1 574 565
M  V30 592 1 573 565
M  V30 593 1 565 572
M  V30 594 1 577 566
M  V30 595 1 566 575
M  V30 596 1 566 576
M  V30 597 1 579 578
M  V30 598 1 578 586
M  V30 599 1 580 579
M  V30 600 1 587 579
M  V30 601 1 579 582
M  V30 602 2 580 581
M  V30 603 1 580 1174
M  V30 604 1 583 582
M  V30 605 1 582 589
M  V30 606 1 582 588
M  V30 607 1 584 583
M  V30 608 2 583 585
M  V30 609 1 590 584
M  V30 610 1 591 584
M  V30 611 1 593 592
M  V30 612 1 592 598
M  V30 613 1 592 1175
M  V30 614 1 594 593
M  V30 615 1 599 593
M  V30 616 1 593 596
M  V30 617 2 595 594
M  V30 618 1 594 1176
M  V30 619 1 600 596
M  V30 620 1 596 597
M  V30 621 1 596 601
M  V30 622 1 597 602
M  V30 623 1 604 603
M  V30 624 1 603 617
M  V30 625 1 603 1177
M  V30 626 1 618 604
M  V30 627 1 607 604
M  V30 628 1 604 605
M  V30 629 1 627 605
M  V30 630 2 605 606
M  V30 631 1 620 607
M  V30 632 1 619 607
M  V30 633 1 607 608
M  V30 634 2 608 609
M  V30 635 1 608 610
M  V30 636 1 621 609
M  V30 637 1 609 613
M  V30 638 2 610 612
M  V30 639 1 610 611
M  V30 640 1 613 611
M  V30 641 2 611 614
M  V30 642 1 623 612
M  V30 643 1 612 615
M  V30 644 1 613 622
M  V30 645 1 614 616
M  V30 646 1 614 624
M  V30 647 1 615 625
M  V30 648 2 615 616
M  V30 649 1 616 626
M  V30 650 1 636 627
M  V30 651 1 627 628
M  V30 652 1 631 628
M  V30 653 1 628 629
M  V30 654 1 628 637
M  V30 655 1 642 629
M  V30 656 2 629 630
M  V30 657 1 638 631
M  V30 658 1 632 631
M  V30 659 1 631 639
M  V30 660 1 633 632
M  V30 661 1 632 640
M  V30 662 1 632 641
M  V30 663 2 635 633
M  V30 664 1 634 633
M  V30 665 1 634 1178
M  V30 666 1 646 642
M  V30 667 1 642 643
M  V30 668 1 647 643
M  V30 669 1 644 643
M  V30 670 1 643 648
M  V30 671 2 645 644
M  V30 672 1 644 649
M  V30 673 1 649 650
M  V30 674 1 649 657
M  V30 675 1 651 650
M  V30 676 1 658 650
M  V30 677 1 650 653
M  V30 678 1 668 651
M  V30 679 2 652 651
M  V30 680 1 654 653
M  V30 681 1 653 659
M  V30 682 1 653 655
M  V30 683 1 661 654
M  V30 684 1 660 654
M  V30 685 1 654 656
M  V30 686 1 662 655
M  V30 687 1 655 664
M  V30 688 1 655 663
M  V30 689 1 666 656
M  V30 690 1 656 667
M  V30 691 1 656 665
M  V30 692 1 669 668
M  V30 693 1 676 668
M  V30 694 1 672 669
M  V30 695 1 669 677
M  V30 696 1 669 670
M  V30 697 2 671 670
M  V30 698 1 670 687
M  V30 699 1 673 672
M  V30 700 1 678 672
M  V30 701 1 679 672
M  V30 702 1 675 673
M  V30 703 1 674 673
M  V30 704 1 673 680
M  V30 705 1 682 674
M  V30 706 1 681 674
M  V30 707 1 674 683
M  V30 708 1 685 675
M  V30 709 1 686 675
M  V30 710 1 675 684
M  V30 711 1 687 691
M  V30 712 1 687 688
M  V30 713 1 689 688
M  V30 714 1 688 693
M  V30 715 1 688 692
M  V30 716 2 690 689
M  V30 717 1 694 689
M  V30 718 1 695 694
M  V30 719 1 694 702
M  V30 720 1 698 695
M  V30 721 1 703 695
M  V30 722 1 695 696
M  V30 723 2 697 696
M  V30 724 1 696 713
M  V30 725 1 699 698
M  V30 726 1 705 698
M  V30 727 1 698 704
M  V30 728 1 701 699
M  V30 729 1 700 699
M  V30 730 1 699 706
M  V30 731 1 707 700
M  V30 732 1 708 700
M  V30 733 1 700 709
M  V30 734 1 712 701
M  V30 735 1 711 701
M  V30 736 1 701 710
M  V30 737 1 713 714
M  V30 738 1 713 718
M  V30 739 1 719 714
M  V30 740 1 715 714
M  V30 741 1 714 717
M  V30 742 2 716 715
M  V30 743 1 715 723
M  V30 744 1 717 721
M  V30 745 1 717 720
M  V30 746 1 717 722
M  V30 747 1 724 723
M  V30 748 1 723 735
M  V30 749 1 736 724
M  V30 750 1 724 727
M  V30 751 1 724 725
M  V30 752 2 725 726
M  V30 753 1 725 1179
M  V30 754 1 728 727
M  V30 755 1 737 727
M  V30 756 1 727 738
M  V30 757 2 730 728
M  V30 758 1 728 729
M  V30 759 2 731 729
M  V30 760 1 729 739
M  V30 761 1 732 730
M  V30 762 1 740 730
M  V30 763 1 733 731
M  V30 764 1 731 741
M  V30 765 1 742 732
M  V30 766 2 732 733
M  V30 767 1 734 733
M  V30 768 1 734 743
M  V30 769 1 752 744
M  V30 770 1 744 745
M  V30 771 1 744 1180
M  V30 772 1 746 745
M  V30 773 1 745 748
M  V30 774 1 745 753
M  V30 775 1 763 746
M  V30 776 2 746 747
M  V30 777 1 749 748
M  V30 778 1 748 750
M  V30 779 1 748 754
M  V30 780 1 755 749
M  V30 781 1 756 749
M  V30 782 1 749 751
M  V30 783 1 757 750
M  V30 784 1 750 758
M  V30 785 1 750 759
M  V30 786 1 761 751
M  V30 787 1 751 760
M  V30 788 1 751 762
M  V30 789 1 768 763
M  V30 790 1 764 763
M  V30 791 1 767 764
M  V30 792 1 769 764
M  V30 793 1 764 765
M  V30 794 1 765 773
M  V30 795 2 765 766
M  V30 796 1 771 767
M  V30 797 1 770 767
M  V30 798 1 767 772
M  V30 799 1 784 773
M  V30 800 1 773 774
M  V30 801 1 775 774
M  V30 802 1 774 785
M  V30 803 1 774 777
M  V30 804 2 776 775
M  V30 805 1 775 1181
M  V30 806 1 786 777
M  V30 807 1 777 787
M  V30 808 1 777 778
M  V30 809 1 788 778
M  V30 810 1 778 789
M  V30 811 1 778 779
M  V30 812 1 791 779
M  V30 813 1 779 790
M  V30 814 1 779 780
M  V30 815 1 792 780
M  V30 816 1 780 781
M  V30 817 2 781 783
M  V30 818 1 781 782
M  V30 819 1 793 782
M  V30 820 1 782 794
M  V30 821 1 782 1182
M  V30 822 1 795 783
M  V30 823 1 783 796
M  V30 824 1 797 805
M  V30 825 1 797 798
M  V30 826 1 797 1183
M  V30 827 1 806 798
M  V30 828 1 799 798
M  V30 829 1 798 801
M  V30 830 2 799 800
M  V30 831 1 799 1184
M  V30 832 1 801 802
M  V30 833 1 801 807
M  V30 834 1 801 808
M  V30 835 1 809 802
M  V30 836 1 804 802
M  V30 837 1 802 803
M  V30 838 1 803 811
M  V30 839 1 803 812
M  V30 840 1 803 810
M  V30 841 1 813 804
M  V30 842 1 804 814
M  V30 843 1 804 815
M  V30 844 1 816 824
M  V30 845 1 816 817
M  V30 846 1 816 1185
M  V30 847 1 825 817
M  V30 848 1 818 817
M  V30 849 1 817 820
M  V30 850 2 818 819
M  V30 851 1 818 1186
M  V30 852 1 820 821
M  V30 853 1 820 826
M  V30 854 1 820 827
M  V30 855 1 823 821
M  V30 856 1 828 821
M  V30 857 1 821 822
M  V30 858 1 822 830
M  V30 859 1 822 831
M  V30 860 1 822 829
M  V30 861 1 832 823
M  V30 862 1 823 833
M  V30 863 1 823 834
M  V30 864 1 849 835
M  V30 865 1 835 836
M  V30 866 1 835 1187
M  V30 867 1 850 836
M  V30 868 1 837 836
M  V30 869 1 836 839
M  V30 870 2 838 837
M  V30 871 1 837 859
M  V30 872 1 852 839
M  V30 873 1 839 851
M  V30 874 1 839 840
M  V30 875 2 841 840
M  V30 876 1 840 842
M  V30 877 1 853 841
M  V30 878 1 841 845
M  V30 879 2 842 843
M  V30 880 1 842 844
M  V30 881 1 845 843
M  V30 882 1 843 846
M  V30 883 1 855 844
M  V30 884 2 844 847
M  V30 885 1 854 845
M  V30 886 1 846 856
M  V30 887 2 846 848
M  V30 888 1 847 848
M  V30 889 1 847 857
M  V30 890 1 848 858
M  V30 891 1 860 859
M  V30 892 1 859 871
M  V30 893 1 861 860
M  V30 894 1 872 860
M  V30 895 1 860 863
M  V30 896 1 880 861
M  V30 897 2 862 861
M  V30 898 1 873 863
M  V30 899 1 863 874
M  V30 900 1 863 864
M  V30 901 2 864 865
M  V30 902 1 864 866
M  V30 903 1 875 865
M  V30 904 1 865 867
M  V30 905 1 866 876
M  V30 906 2 866 868
M  V30 907 1 867 877
M  V30 908 2 867 869
M  V30 909 1 868 869
M  V30 910 1 868 878
M  V30 911 1 869 870
M  V30 912 1 879 870
M  V30 913 1 881 880
M  V30 914 1 880 892
M  V30 915 1 884 881
M  V30 916 1 893 881
M  V30 917 1 881 882
M  V30 918 2 882 883
M  V30 919 1 882 1188
M  V30 920 1 885 884
M  V30 921 1 894 884
M  V30 922 1 884 895
M  V30 923 2 887 885
M  V30 924 1 885 886
M  V30 925 2 888 886
M  V30 926 1 886 896
M  V30 927 1 889 887
M  V30 928 1 897 887
M  V30 929 1 890 888
M  V30 930 1 888 898
M  V30 931 1 899 889
M  V30 932 2 889 890
M  V30 933 1 891 890
M  V30 934 1 891 900
M  V30 935 1 902 901
M  V30 936 1 901 910
M  V30 937 1 901 1189
M  V30 938 1 903 902
M  V30 939 1 905 902
M  V30 940 1 911 902
M  V30 941 2 903 904
M  V30 942 1 903 1190
M  V30 943 1 912 905
M  V30 944 1 905 906
M  V30 945 1 905 913
M  V30 946 1 915 906
M  V30 947 1 907 906
M  V30 948 1 906 914
M  V30 949 1 916 907
M  V30 950 1 907 917
M  V30 951 1 907 908
M  V30 952 1 919 908
M  V30 953 1 918 908
M  V30 954 1 908 909
M  V30 955 1 909 922
M  V30 956 1 909 920
M  V30 957 1 909 921
M  V30 958 1 924 923
M  V30 959 1 923 931
M  V30 960 1 923 1191
M  V30 961 1 925 924
M  V30 962 1 932 924
M  V30 963 1 924 927
M  V30 964 1 942 925
M  V30 965 2 925 926
M  V30 966 1 933 927
M  V30 967 1 927 928
M  V30 968 1 927 929
M  V30 969 1 935 928
M  V30 970 1 928 930
M  V30 971 1 928 934
M  V30 972 1 938 929
M  V30 973 1 929 937
M  V30 974 1 929 936
M  V30 975 1 941 930
M  V30 976 1 930 940
M  V30 977 1 930 939
M  V30 978 1 943 942
M  V30 979 1 949 942
M  V30 980 1 946 943
M  V30 981 1 943 944
M  V30 982 1 943 950
M  V30 983 2 945 944
M  V30 984 1 944 958
M  V30 985 1 947 946
M  V30 986 1 951 946
M  V30 987 1 948 946
M  V30 988 1 953 947
M  V30 989 1 954 947
M  V30 990 1 947 952
M  V30 991 1 956 948
M  V30 992 1 948 957
M  V30 993 1 948 955
M  V30 994 1 958 966
M  V30 995 1 958 959
M  V30 996 1 967 959
M  V30 997 1 960 959
M  V30 998 1 959 962
M  V30 999 1 970 960
M  V30 1000 2 960 961
M  V30 1001 1 962 963
M  V30 1002 1 962 968
M  V30 1003 1 962 969
M  V30 1004 2 964 963
M  V30 1005 1 963 965
M  V30 1006 1 971 970
M  V30 1007 1 976 970
M  V30 1008 1 974 971
M  V30 1009 1 977 971
M  V30 1010 1 971 972
M  V30 1011 2 973 972
M  V30 1012 1 972 981
M  V30 1013 1 979 974
M  V30 1014 1 978 974
M  V30 1015 1 974 975
M  V30 1016 1 980 975
M  V30 1017 1 981 985
M  V30 1018 1 981 982
M  V30 1019 1 987 982
M  V30 1020 1 982 986
M  V30 1021 1 982 983
M  V30 1022 1 983 988
M  V30 1023 2 983 984
M  V30 1024 1 995 988
M  V30 1025 1 988 989
M  V30 1026 1 990 989
M  V30 1027 1 989 996
M  V30 1028 1 989 992
M  V30 1029 2 991 990
M  V30 1030 1 990 1002
M  V30 1031 1 997 992
M  V30 1032 1 992 994
M  V30 1033 1 992 993
M  V30 1034 1 1001 993
M  V30 1035 1 993 999
M  V30 1036 1 993 1000
M  V30 1037 1 994 998
M  V30 1038 1 1003 1002
M  V30 1039 1 1002 1009
M  V30 1040 1 1010 1003
M  V30 1041 1 1003 1004
M  V30 1042 1 1003 1006
M  V30 1043 2 1005 1004
M  V30 1044 1 1004 1016
M  V30 1045 1 1008 1006
M  V30 1046 1 1007 1006
M  V30 1047 1 1006 1011
M  V30 1048 1 1013 1007
M  V30 1049 1 1014 1007
M  V30 1050 1 1007 1015
M  V30 1051 1 1008 1012
M  V30 1052 1 1016 1017
M  V30 1053 1 1016 1024
M  V30 1054 1 1025 1017
M  V30 1055 1 1018 1017
M  V30 1056 1 1017 1020
M  V30 1057 2 1019 1018
M  V30 1058 1 1018 1192
M  V30 1059 1 1020 1027
M  V30 1060 1 1020 1021
M  V30 1061 1 1020 1026
M  V30 1062 2 1023 1021
M  V30 1063 1 1021 1022
M  V30 1064 1 1022 1029
M  V30 1065 1 1022 1028
M  V30 1066 1 1041 1030
M  V30 1067 1 1030 1031
M  V30 1068 1 1030 1193
M  V30 1069 1 1031 1032
M  V30 1070 1 1031 1034
M  V30 1071 1 1031 1042
M  V30 1072 2 1033 1032
M  V30 1073 1 1032 1194
M  V30 1074 1 1043 1034
M  V30 1075 1 1035 1034
M  V30 1076 1 1034 1044
M  V30 1077 1 1046 1035
M  V30 1078 1 1035 1045
M  V30 1079 1 1035 1036
M  V30 1080 1 1047 1036
M  V30 1081 1 1048 1036
M  V30 1082 1 1036 1037
M  V30 1083 1 1037 1049
M  V30 1084 1 1037 1038
M  V30 1085 2 1040 1038
M  V30 1086 1 1038 1039
M  V30 1087 1 1039 1050
M  V30 1088 1 1039 1051
M  V30 1089 1 1039 1195
M  V30 1090 1 1052 1040
M  V30 1091 1 1040 1053
M  V30 1092 1 1055 1054
M  V30 1093 1 1054 1060
M  V30 1094 1 1054 1196
M  V30 1095 1 1058 1055
M  V30 1096 1 1055 1061
M  V30 1097 1 1055 1056
M  V30 1098 2 1056 1057
M  V30 1099 1 1056 1197
M  V30 1100 1 1062 1058
M  V30 1101 1 1059 1058
M  V30 1102 1 1063 1058
M  V30 1103 1 1064 1059
M  V30 1104 1 1066 1065
M  V30 1105 1 1072 1065
M  V30 1106 1 1065 1198
M  V30 1107 1 1067 1066
M  V30 1108 1 1069 1066
M  V30 1109 1 1066 1073
M  V30 1110 2 1068 1067
M  V30 1111 1 1067 1199
M  V30 1112 1 1071 1069
M  V30 1113 1 1074 1069
M  V30 1114 1 1069 1070
M  V30 1115 1 1077 1070
M  V30 1116 1 1070 1078
M  V30 1117 1 1070 1076
M  V30 1118 1 1075 1071
M  V30 1119 1 1080 1079
M  V30 1120 1 1086 1079
M  V30 1121 1 1079 1200
M  V30 1122 1 1081 1080
M  V30 1123 1 1083 1080
M  V30 1124 1 1080 1087
M  V30 1125 2 1082 1081
M  V30 1126 1 1093 1081
M  V30 1127 1 1084 1083
M  V30 1128 1 1088 1083
M  V30 1129 1 1083 1085
M  V30 1130 1 1092 1084
M  V30 1131 1 1091 1084
M  V30 1132 1 1084 1090
M  V30 1133 1 1089 1085
M  V30 1134 1 1094 1093
M  V30 1135 1 1093 1100
M  V30 1136 1 1095 1094
M  V30 1137 1 1101 1094
M  V30 1138 1 1094 1097
M  V30 1139 1 1109 1095
M  V30 1140 2 1095 1096
M  V30 1141 1 1098 1097
M  V30 1142 1 1097 1102
M  V30 1143 1 1097 1099
M  V30 1144 1 1105 1098
M  V30 1145 1 1103 1098
M  V30 1146 1 1098 1104
M  V30 1147 1 1108 1099
M  V30 1148 1 1099 1107
M  V30 1149 1 1099 1106
M  V30 1150 1 1110 1109
M  V30 1151 1 1117 1109
M  V30 1152 1 1113 1110
M  V30 1153 1 1111 1110
M  V30 1154 1 1110 1118
M  V30 1155 2 1112 1111
M  V30 1156 1 1111 1126
M  V30 1157 1 1120 1113
M  V30 1158 1 1119 1113
M  V30 1159 1 1113 1114
M  V30 1160 1 1115 1114
M  V30 1161 1 1114 1121
M  V30 1162 1 1114 1122
M  V30 1163 1 1116 1115
M  V30 1164 1 1124 1116
M  V30 1165 1 1125 1116
M  V30 1166 1 1116 1123
M  V30 1167 1 1127 1126
M  V30 1168 1 1126 1130
M  V30 1169 1 1128 1127
M  V30 1170 1 1132 1127
M  V30 1171 1 1127 1131
M  V30 1172 2 1129 1128
M  V30 1173 1 1133 1128
M  V30 1174 1 1134 1133
M  V30 1175 1 1133 1138
M  V30 1176 1 1139 1134
M  V30 1177 1 1135 1134
M  V30 1178 1 1134 1137
M  V30 1179 2 1136 1135
M  V30 1180 1 1135 1201
M  V30 1181 1 1140 1137
M  V30 1182 1 1141 1137
M  V30 1183 1 1137 1142
M  V30 1184 1 1144 1143
M  V30 1185 1 1143 1151
M  V30 1186 1 1143 1202
M  V30 1187 1 1145 1144
M  V30 1188 1 1152 1144
M  V30 1189 1 1144 1147
M  V30 1190 2 1146 1145
M  V30 1191 1 1145 1203
M  V30 1192 1 1154 1147
M  V30 1193 1 1147 1153
M  V30 1194 1 1147 1148
M  V30 1195 1 1155 1148
M  V30 1196 1 1148 1149
M  V30 1197 1 1148 1156
M  V30 1198 1 1150 1149
M  V30 1199 1 1159 1150
M  V30 1200 1 1157 1150
M  V30 1201 1 1158 1150
M  V30 END BOND
M  V30 END CTAB
M  END
